version 3
run HighMobility-0-20250220-04:21:31-16236
attr configname HighMobility
attr datetime 20250220-04:21:31
attr datetimef 20250220-042131
attr experiment HighMobility
attr inifile omnetpp.ini
attr iterationvars ""
attr iterationvarsd ""
attr iterationvarsf ""
attr measurement ""
attr network aodv50AdhocHighMobilityNetwork
attr processid 16236
attr repetition 0
attr replication #0
attr resultdir results
attr runnumber 0
attr seedset 0
config image-path ../../inet/images
config description "Cenário de alta mobilidade"
config *.numHosts 50
config **.host[*].mobility.typename MassMobility
config **.host[*].mobility.speed "normal(5mps, 5mps)"
config **.host[*].mobility.changeInterval "uniform(1s, 1s)"
config **.host[*].mobility.angleDelta "uniform(0deg, 360deg)"
config *.host[*].numApps 1
config *.host[*].app[0].typename PingApp
config *.host[*].app[0].startTime uniform(1s,1s)
config *.host[*].app[0].sendInterval "uniform(0.1s, 0.1s)"
config *.host[*].app[0].packetLength 1024B
config *.host[*].app[0].destAddr "\"host[0,24](ipv4)\""
config *.host[*].app[0].printPing true
config **.recordEventLog true
config **.routingTableRecorder.record true
config **.networkLayer.packetDeliveryRatio.recordScalar true
config **.networkLayer.endToEndDelay.recordScalar true
config *.configurator.config "xml(\"<config> \\    <interface hosts='host[*]' address='10.0.0.1' netmask='255.255.255.0'/> \\</config>\")"
config network aodv50AdhocHighMobilityNetwork
config num-rngs 3
config **.mobility.rng-0 1
config **.wlan[*].mac.rng-0 2
config sim-time-limit 120s
config **.wlan[*].typename AckingWirelessInterface
config **.wlan[*].bitrate 10Mbps
config **.wlan[*].mac.headerLength 23B
config **.wlan[*].radio.typename UnitDiskRadio
config **.wlan[*].radio.transmitter.headerLength 96b
config **.wlan[*].radio.transmitter.communicationRange 50m
config **.wlan[*].radio.transmitter.interferenceRange 100m
config **.wlan[*].radio.transmitter.detectionRange 100m
config **.wlan[*].radio.receiver.ignoreInterference false
config **.mobility.constraintAreaMinX 0m
config **.mobility.constraintAreaMinY 0m
config **.mobility.constraintAreaMaxX 600m
config **.mobility.constraintAreaMaxY 600m
config **.mobility.constraintAreaMinZ 0m
config **.mobility.constraintAreaMaxZ 0m
config **.hasStatus true

par aodv50AdhocHighMobilityNetwork.radioMedium.propagation typename "\"inet.physicallayer.wireless.common.propagation.ConstantSpeedPropagation\""
par aodv50AdhocHighMobilityNetwork.radioMedium.propagation propagationSpeed 2.99792e+08mps
attr unit mps
par aodv50AdhocHighMobilityNetwork.radioMedium.propagation ignoreMovementDuringTransmission true
par aodv50AdhocHighMobilityNetwork.radioMedium.propagation ignoreMovementDuringPropagation true
par aodv50AdhocHighMobilityNetwork.radioMedium.propagation ignoreMovementDuringReception true
scalar aodv50AdhocHighMobilityNetwork.radioMedium.propagation "Arrival computation count" 731227
par aodv50AdhocHighMobilityNetwork.radioMedium.analogModel typename "\"inet.physicallayer.wireless.unitdisk.UnitDiskAnalogModel\""
par aodv50AdhocHighMobilityNetwork.radioMedium.pathLoss typename "\"inet.physicallayer.wireless.common.pathloss.FreeSpacePathLoss\""
par aodv50AdhocHighMobilityNetwork.radioMedium.pathLoss alpha 2
par aodv50AdhocHighMobilityNetwork.radioMedium.pathLoss systemLoss 0dB
attr unit dB
par aodv50AdhocHighMobilityNetwork.radioMedium.mediumLimitCache typename "\"inet.physicallayer.wireless.common.medium.MediumLimitCache\""
par aodv50AdhocHighMobilityNetwork.radioMedium.mediumLimitCache centerFrequency "nan Hz"
attr unit Hz
par aodv50AdhocHighMobilityNetwork.radioMedium.mediumLimitCache maxSpeed "nan mps"
attr unit mps
par aodv50AdhocHighMobilityNetwork.radioMedium.mediumLimitCache maxTransmissionPower "nan W"
attr unit W
par aodv50AdhocHighMobilityNetwork.radioMedium.mediumLimitCache minInterferencePower "nan dBm"
attr unit dBm
par aodv50AdhocHighMobilityNetwork.radioMedium.mediumLimitCache minReceptionPower "nan dBm"
attr unit dBm
par aodv50AdhocHighMobilityNetwork.radioMedium.mediumLimitCache maxAntennaGain 0dB
attr unit dB
par aodv50AdhocHighMobilityNetwork.radioMedium.mediumLimitCache minInterferenceTime 1e-12s
attr unit s
par aodv50AdhocHighMobilityNetwork.radioMedium.mediumLimitCache maxTransmissionDuration 0.01s
attr unit s
par aodv50AdhocHighMobilityNetwork.radioMedium.mediumLimitCache maxCommunicationRange "nan m"
attr unit m
par aodv50AdhocHighMobilityNetwork.radioMedium.mediumLimitCache maxInterferenceRange "nan m"
attr unit m
par aodv50AdhocHighMobilityNetwork.radioMedium.communicationCache typename "\"inet.physicallayer.wireless.common.communicationcache.VectorCommunicationCache\""
par aodv50AdhocHighMobilityNetwork.radioMedium typename "\"inet.physicallayer.wireless.unitdisk.UnitDiskRadioMedium\""
par aodv50AdhocHighMobilityNetwork.radioMedium physicalEnvironmentModule "\"physicalEnvironment\""
par aodv50AdhocHighMobilityNetwork.radioMedium signalAnalogRepresentation "\"unitDisk\""
attr enum unitDisk,scalar,dimensional
par aodv50AdhocHighMobilityNetwork.radioMedium rangeFilter "\"\""
par aodv50AdhocHighMobilityNetwork.radioMedium radioModeFilter false
par aodv50AdhocHighMobilityNetwork.radioMedium listeningFilter false
par aodv50AdhocHighMobilityNetwork.radioMedium macAddressFilter false
par aodv50AdhocHighMobilityNetwork.radioMedium recordTransmissionLog false
par aodv50AdhocHighMobilityNetwork.radioMedium recordReceptionLog false
scalar aodv50AdhocHighMobilityNetwork.radioMedium "transmission count" 14923
scalar aodv50AdhocHighMobilityNetwork.radioMedium "signal send count" 731227
scalar aodv50AdhocHighMobilityNetwork.radioMedium "reception computation count" 731178
scalar aodv50AdhocHighMobilityNetwork.radioMedium "interference computation count" 2193008
scalar aodv50AdhocHighMobilityNetwork.radioMedium "reception decision computation count" 29461
scalar aodv50AdhocHighMobilityNetwork.radioMedium "listening decision computation count" 1432369
scalar aodv50AdhocHighMobilityNetwork.radioMedium "reception cache hit" 82.920061285935
attr unit %
scalar aodv50AdhocHighMobilityNetwork.radioMedium "interference cache hit" 66.666666666667
attr unit %
scalar aodv50AdhocHighMobilityNetwork.radioMedium "noise cache hit" 0
attr unit %
scalar aodv50AdhocHighMobilityNetwork.radioMedium "snir cache hit" 50
attr unit %
scalar aodv50AdhocHighMobilityNetwork.radioMedium "reception decision cache hit" 50
attr unit %
scalar aodv50AdhocHighMobilityNetwork.radioMedium "reception result cache hit" 0
attr unit %
par aodv50AdhocHighMobilityNetwork.configurator typename "\"inet.networklayer.configurator.ipv4.Ipv4NetworkConfigurator\""
par aodv50AdhocHighMobilityNetwork.configurator minLinkWeight 0.001
par aodv50AdhocHighMobilityNetwork.configurator configureIsolatedNetworksSeparatly false
par aodv50AdhocHighMobilityNetwork.configurator config "<config>...</config> at content:1"
par aodv50AdhocHighMobilityNetwork.configurator assignAddresses true
par aodv50AdhocHighMobilityNetwork.configurator assignUniqueAddresses true
par aodv50AdhocHighMobilityNetwork.configurator assignDisjunctSubnetAddresses true
par aodv50AdhocHighMobilityNetwork.configurator addStaticRoutes false
par aodv50AdhocHighMobilityNetwork.configurator addDefaultRoutes false
par aodv50AdhocHighMobilityNetwork.configurator addSubnetRoutes false
par aodv50AdhocHighMobilityNetwork.configurator addDirectRoutes true
par aodv50AdhocHighMobilityNetwork.configurator optimizeRoutes true
par aodv50AdhocHighMobilityNetwork.configurator dumpTopology false
par aodv50AdhocHighMobilityNetwork.configurator dumpLinks false
par aodv50AdhocHighMobilityNetwork.configurator dumpAddresses false
par aodv50AdhocHighMobilityNetwork.configurator dumpRoutes false
par aodv50AdhocHighMobilityNetwork.configurator dumpConfig "\"\""
par aodv50AdhocHighMobilityNetwork.routingTableRecorder typename "\"inet.networklayer.ipv4.RoutingTableRecorder\""
par aodv50AdhocHighMobilityNetwork.routingTableRecorder enabled true
par aodv50AdhocHighMobilityNetwork.scenarioManager typename "\"inet.common.scenario.ScenarioManager\""
par aodv50AdhocHighMobilityNetwork.scenarioManager script "<scenario/> at content:1"
par aodv50AdhocHighMobilityNetwork.host[0].radioIn[0].channel typename "\"ned.IdealChannel\""
par aodv50AdhocHighMobilityNetwork.host[0].status typename "\"inet.common.lifecycle.NodeStatus\""
par aodv50AdhocHighMobilityNetwork.host[0].status initialStatus "\"UP\""
par aodv50AdhocHighMobilityNetwork.host[0].mobility typename "\"inet.mobility.single.MassMobility\""
par aodv50AdhocHighMobilityNetwork.host[0].mobility subjectModule "\"^\""
par aodv50AdhocHighMobilityNetwork.host[0].mobility coordinateSystemModule "\"\""
par aodv50AdhocHighMobilityNetwork.host[0].mobility displayStringTextFormat "\"p: %p\\nv: %v\""
attr mutable ""
par aodv50AdhocHighMobilityNetwork.host[0].mobility updateDisplayString true
par aodv50AdhocHighMobilityNetwork.host[0].mobility constraintAreaMinX 0m
attr unit m
par aodv50AdhocHighMobilityNetwork.host[0].mobility constraintAreaMinY 0m
attr unit m
par aodv50AdhocHighMobilityNetwork.host[0].mobility constraintAreaMinZ 0m
attr unit m
par aodv50AdhocHighMobilityNetwork.host[0].mobility constraintAreaMaxX 600m
attr unit m
par aodv50AdhocHighMobilityNetwork.host[0].mobility constraintAreaMaxY 600m
attr unit m
par aodv50AdhocHighMobilityNetwork.host[0].mobility constraintAreaMaxZ 0m
attr unit m
par aodv50AdhocHighMobilityNetwork.host[0].mobility updateInterval 0.1s
attr unit s
par aodv50AdhocHighMobilityNetwork.host[0].mobility faceForward true
par aodv50AdhocHighMobilityNetwork.host[0].mobility initialX 250.213m
attr unit m
par aodv50AdhocHighMobilityNetwork.host[0].mobility initialY 598.311m
attr unit m
par aodv50AdhocHighMobilityNetwork.host[0].mobility initialZ 0m
attr unit m
par aodv50AdhocHighMobilityNetwork.host[0].mobility initialMovementHeading 335.721deg
attr unit deg
par aodv50AdhocHighMobilityNetwork.host[0].mobility initialMovementElevation 0deg
attr unit deg
par aodv50AdhocHighMobilityNetwork.host[0].mobility initFromDisplayString true
par aodv50AdhocHighMobilityNetwork.host[0].mobility changeInterval "uniform(1s, 1s)"
attr unit s
par aodv50AdhocHighMobilityNetwork.host[0].mobility angleDelta "uniform(0deg, 360deg)"
attr unit deg
par aodv50AdhocHighMobilityNetwork.host[0].mobility rotationAxisAngle 0deg
attr unit deg
par aodv50AdhocHighMobilityNetwork.host[0].mobility speed "normal(5mps, 5mps)"
attr mutable ""
attr unit mps
par aodv50AdhocHighMobilityNetwork.host[0].interfaceTable typename "\"inet.networklayer.common.InterfaceTable\""
par aodv50AdhocHighMobilityNetwork.host[0].interfaceTable displayAddresses false
par aodv50AdhocHighMobilityNetwork.host[0].cb typename "\"inet.common.MessageDispatcher\""
par aodv50AdhocHighMobilityNetwork.host[0].cb displayStringTextFormat "\"processed %p pk (%l)\""
par aodv50AdhocHighMobilityNetwork.host[0].cb forwardServiceRegistration true
par aodv50AdhocHighMobilityNetwork.host[0].cb forwardProtocolRegistration true
par aodv50AdhocHighMobilityNetwork.host[0].bl typename "\"inet.common.MessageDispatcher\""
par aodv50AdhocHighMobilityNetwork.host[0].bl displayStringTextFormat "\"processed %p pk (%l)\""
par aodv50AdhocHighMobilityNetwork.host[0].bl forwardServiceRegistration true
par aodv50AdhocHighMobilityNetwork.host[0].bl forwardProtocolRegistration true
par aodv50AdhocHighMobilityNetwork.host[0].li typename "\"inet.common.MessageDispatcher\""
par aodv50AdhocHighMobilityNetwork.host[0].li displayStringTextFormat "\"processed %p pk (%l)\""
par aodv50AdhocHighMobilityNetwork.host[0].li forwardServiceRegistration true
par aodv50AdhocHighMobilityNetwork.host[0].li forwardProtocolRegistration true
par aodv50AdhocHighMobilityNetwork.host[0].lo[0].upperLayerIn.channel typename "\"ned.IdealChannel\""
par aodv50AdhocHighMobilityNetwork.host[0].lo[0].lo.upperLayerOut.channel typename "\"ned.IdealChannel\""
par aodv50AdhocHighMobilityNetwork.host[0].lo[0].lo typename "\"inet.linklayer.loopback.Loopback\""
par aodv50AdhocHighMobilityNetwork.host[0].lo[0].lo interfaceTableModule "\"aodv50AdhocHighMobilityNetwork.host[0].interfaceTable\""
par aodv50AdhocHighMobilityNetwork.host[0].lo[0].lo mtu 4470B
attr unit B
scalar aodv50AdhocHighMobilityNetwork.host[0].lo[0].lo rcvdPkFromHl:count 2382
attr interpolationmode none
attr recordingmode count
attr source packetReceivedFromUpper
attr title "packets received from higher layer, count"
scalar aodv50AdhocHighMobilityNetwork.host[0].lo[0].lo rcvdPkFromHl:sum(packetBytes) 200088
attr interpolationmode none
attr recordingmode sum(packetBytes)
attr source packetReceivedFromUpper
attr title "packets received from higher layer, sum(packetBytes)"
scalar aodv50AdhocHighMobilityNetwork.host[0].lo[0].lo passedUpPk:count 2382
attr interpolationmode none
attr recordingmode count
attr source packetSentToUpper
attr title "packets passed to higher layer, count"
scalar aodv50AdhocHighMobilityNetwork.host[0].lo[0].lo passedUpPk:sum(packetBytes) 200088
attr interpolationmode none
attr recordingmode sum(packetBytes)
attr source packetSentToUpper
attr title "packets passed to higher layer, sum(packetBytes)"
par aodv50AdhocHighMobilityNetwork.host[0].lo[0] typename "\"inet.linklayer.loopback.LoopbackInterface\""
par aodv50AdhocHighMobilityNetwork.host[0].lo[0] displayStringTextFormat "\"%a (%i)\\n%m\""
par aodv50AdhocHighMobilityNetwork.host[0].lo[0] recordPcap false
par aodv50AdhocHighMobilityNetwork.host[0].lo[0] numPcapRecorders 0
par aodv50AdhocHighMobilityNetwork.host[0].lo[0] interfaceTableModule "\"aodv50AdhocHighMobilityNetwork.host[0].interfaceTable\""
scalar aodv50AdhocHighMobilityNetwork.host[0].lo[0] packetDropInterfaceDown:count 0
attr interpolationmode none
attr recordingmode count
attr source packetDropReasonIsInterfaceDown(packetDropped)
attr title "packet drops: interface down, count"
scalar aodv50AdhocHighMobilityNetwork.host[0].lo[0] packetDropInterfaceDown:sum(packetBytes) 0
attr interpolationmode none
attr recordingmode sum(packetBytes)
attr source packetDropReasonIsInterfaceDown(packetDropped)
attr title "packet drops: interface down, sum(packetBytes)"
scalar aodv50AdhocHighMobilityNetwork.host[0].lo[0] packetDropNoCarrier:count 0
attr interpolationmode none
attr recordingmode count
attr source packetDropReasonIsNoCarrier(packetDropped)
attr title "packet drops: no carrier, count"
scalar aodv50AdhocHighMobilityNetwork.host[0].lo[0] packetDropNoCarrier:sum(packetBytes) 0
attr interpolationmode none
attr recordingmode sum(packetBytes)
attr source packetDropReasonIsNoCarrier(packetDropped)
attr title "packet drops: no carrier, sum(packetBytes)"
par aodv50AdhocHighMobilityNetwork.host[0].wlan[0].upperLayerIn.channel typename "\"ned.IdealChannel\""
par aodv50AdhocHighMobilityNetwork.host[0].wlan[0].radioIn.channel typename "\"ned.IdealChannel\""
par aodv50AdhocHighMobilityNetwork.host[0].wlan[0].mac.upperLayerOut.channel typename "\"ned.IdealChannel\""
par aodv50AdhocHighMobilityNetwork.host[0].wlan[0].queue typename "\"inet.queueing.queue.DropTailQueue\""
par aodv50AdhocHighMobilityNetwork.host[0].wlan[0].queue displayStringTextFormat "\"contains %p pk (%l) pushed %u\\npulled %o removed %r dropped %d\""
par aodv50AdhocHighMobilityNetwork.host[0].wlan[0].queue packetCapacity 100
par aodv50AdhocHighMobilityNetwork.host[0].wlan[0].queue dataCapacity -1b
attr unit b
par aodv50AdhocHighMobilityNetwork.host[0].wlan[0].queue dropperClass "\"inet::queueing::PacketAtCollectionEndDropper\""
par aodv50AdhocHighMobilityNetwork.host[0].wlan[0].queue comparatorClass "\"\""
par aodv50AdhocHighMobilityNetwork.host[0].wlan[0].queue bufferModule "\"\""
scalar aodv50AdhocHighMobilityNetwork.host[0].wlan[0].queue queueLength:last 0
attr autoWarmupFilter false
attr interpolationmode sample-hold
attr recordingmode last
attr source "warmup(atomic(constant0(packetPushEnded) + count(packetPushStarted) - count(packetPulled) - count(packetRemoved) - count(packetDropped)))"
attr title "queue length, last"
attr unit pk
scalar aodv50AdhocHighMobilityNetwork.host[0].wlan[0].queue queueLength:max 75
attr autoWarmupFilter false
attr interpolationmode sample-hold
attr recordingmode max
attr source "warmup(atomic(constant0(packetPushEnded) + count(packetPushStarted) - count(packetPulled) - count(packetRemoved) - count(packetDropped)))"
attr title "queue length, max"
attr unit pk
scalar aodv50AdhocHighMobilityNetwork.host[0].wlan[0].queue queueLength:timeavg 0.82866985377083
attr autoWarmupFilter false
attr interpolationmode sample-hold
attr recordingmode timeavg
attr source "warmup(atomic(constant0(packetPushEnded) + count(packetPushStarted) - count(packetPulled) - count(packetRemoved) - count(packetDropped)))"
attr title "queue length, timeavg"
attr unit pk
scalar aodv50AdhocHighMobilityNetwork.host[0].wlan[0].queue queueBitLength:last 0
attr autoWarmupFilter false
attr interpolationmode sample-hold
attr recordingmode last
attr source "warmup(atomic(constant0(packetPushEnded) + sum(packetLength(packetPushStarted)) - sum(packetLength(packetPulled)) - sum(packetLength(packetRemoved)) - sum(packetLength(packetDropped))))"
attr title "queue bit length, last"
attr unit b
scalar aodv50AdhocHighMobilityNetwork.host[0].wlan[0].queue queueBitLength:max 50144
attr autoWarmupFilter false
attr interpolationmode sample-hold
attr recordingmode max
attr source "warmup(atomic(constant0(packetPushEnded) + sum(packetLength(packetPushStarted)) - sum(packetLength(packetPulled)) - sum(packetLength(packetRemoved)) - sum(packetLength(packetDropped))))"
attr title "queue bit length, max"
attr unit b
scalar aodv50AdhocHighMobilityNetwork.host[0].wlan[0].queue queueBitLength:timeavg 538.39523055885
attr autoWarmupFilter false
attr interpolationmode sample-hold
attr recordingmode timeavg
attr source "warmup(atomic(constant0(packetPushEnded) + sum(packetLength(packetPushStarted)) - sum(packetLength(packetPulled)) - sum(packetLength(packetRemoved)) - sum(packetLength(packetDropped))))"
attr title "queue bit length, timeavg"
attr unit b
statistic aodv50AdhocHighMobilityNetwork.host[0].wlan[0].queue queueingTime:histogram
field count 2014
field mean 0.049374569241559
field stddev 0.31294028332288
field min 0
field max 3.598535461947
field sum 99.440382452499
field sqrsum 202.04617897326
attr interpolationmode none
attr recordingmode histogram
attr source queueingTime(packetPulled)
attr title "queueing times"
attr unit s
bin	-inf	0
bin	-0.5	0
bin	-0.42	0
bin	-0.34	0
bin	-0.26	0
bin	-0.18	0
bin	-0.1	0
bin	-0.02	1760
bin	0.06	216
bin	0.14	1
bin	0.22	1
bin	0.3	0
bin	0.38	1
bin	0.46	1
bin	0.54	1
bin	0.62	1
bin	0.7	0
bin	0.78	1
bin	0.86	1
bin	0.94	1
bin	1.02	1
bin	1.1	0
bin	1.18	1
bin	1.26	1
bin	1.34	1
bin	1.42	1
bin	1.5	0
bin	1.58	1
bin	1.66	1
bin	1.74	1
bin	1.82	1
bin	1.9	0
bin	1.98	1
bin	2.06	1
bin	2.14	1
bin	2.22	1
bin	2.3	0
bin	2.38	1
bin	2.46	1
bin	2.54	1
bin	2.62	1
bin	2.7	0
bin	2.78	1
bin	2.86	1
bin	2.94	1
bin	3.02	1
bin	3.1	0
bin	3.18	1
bin	3.26	1
bin	3.34	1
bin	3.42	2
bin	3.5	0
bin	3.58	3
bin	3.66	0
scalar aodv50AdhocHighMobilityNetwork.host[0].wlan[0].queue outgoingPackets:count 2014
attr recordingmode count
attr source packetPulled
attr title "outgoing packets, count"
attr unit pk
scalar aodv50AdhocHighMobilityNetwork.host[0].wlan[0].queue outgoingPacketLengths:sum 1301312
attr interpolationmode none
attr recordingmode sum
attr source packetLength(packetPulled)
attr title "outgoing packet lengths, sum"
attr unit b
statistic aodv50AdhocHighMobilityNetwork.host[0].wlan[0].queue outgoingPacketLengths:histogram
field count 2014
field mean 646.13306852036
field stddev 82.765189968128
field min 224
field max 672
field sum 1301312
field sqrsum 854609920
attr interpolationmode none
attr recordingmode histogram
attr source packetLength(packetPulled)
attr title "outgoing packet lengths"
attr unit b
bin	-inf	0
bin	110	0
bin	120	0
bin	130	0
bin	140	0
bin	150	0
bin	160	0
bin	170	0
bin	180	0
bin	190	0
bin	200	0
bin	210	0
bin	220	9
bin	230	0
bin	240	0
bin	250	0
bin	260	0
bin	270	0
bin	280	0
bin	290	0
bin	300	0
bin	310	0
bin	320	0
bin	330	0
bin	340	0
bin	350	0
bin	360	0
bin	370	0
bin	380	116
bin	390	0
bin	400	0
bin	410	52
bin	420	0
bin	430	0
bin	440	6
bin	450	0
bin	460	0
bin	470	0
bin	480	0
bin	490	0
bin	500	0
bin	510	0
bin	520	0
bin	530	0
bin	540	0
bin	550	0
bin	560	0
bin	570	0
bin	580	0
bin	590	0
bin	600	0
bin	610	0
bin	620	0
bin	630	0
bin	640	0
bin	650	0
bin	660	0
bin	670	1831
bin	680	0
bin	690	0
bin	700	0
bin	710	0
bin	720	0
bin	730	0
bin	740	0
bin	750	0
bin	760	0
bin	770	0
bin	780	0
bin	790	0
statistic aodv50AdhocHighMobilityNetwork.host[0].wlan[0].queue flowQueueingTime:histogram
field count 0
field mean nan
field stddev nan
field min nan
field max nan
field sum 0
field sqrsum 0
attr interpolationmode none
attr recordingmode histogram
attr source queueingTime(demuxFlow(packetPulled))
attr title "flow queueing times"
attr unit s
bin	-inf	0
bin	0	0
bin	1	0
scalar aodv50AdhocHighMobilityNetwork.host[0].wlan[0].queue incomingPackets:count 2014
attr recordingmode count
attr source packetPushStarted
attr title "incoming packets, count"
attr unit pk
scalar aodv50AdhocHighMobilityNetwork.host[0].wlan[0].queue incomingPacketLengths:sum 1301312
attr interpolationmode none
attr recordingmode sum
attr source packetLength(packetPushStarted)
attr title "incoming packet lengths, sum"
attr unit b
statistic aodv50AdhocHighMobilityNetwork.host[0].wlan[0].queue incomingPacketLengths:histogram
field count 2014
field mean 646.13306852036
field stddev 82.765189968128
field min 224
field max 672
field sum 1301312
field sqrsum 854609920
attr interpolationmode none
attr recordingmode histogram
attr source packetLength(packetPushStarted)
attr title "incoming packet lengths"
attr unit b
bin	-inf	0
bin	110	0
bin	120	0
bin	130	0
bin	140	0
bin	150	0
bin	160	0
bin	170	0
bin	180	0
bin	190	0
bin	200	0
bin	210	0
bin	220	9
bin	230	0
bin	240	0
bin	250	0
bin	260	0
bin	270	0
bin	280	0
bin	290	0
bin	300	0
bin	310	0
bin	320	0
bin	330	0
bin	340	0
bin	350	0
bin	360	0
bin	370	0
bin	380	116
bin	390	0
bin	400	0
bin	410	52
bin	420	0
bin	430	0
bin	440	6
bin	450	0
bin	460	0
bin	470	0
bin	480	0
bin	490	0
bin	500	0
bin	510	0
bin	520	0
bin	530	0
bin	540	0
bin	550	0
bin	560	0
bin	570	0
bin	580	0
bin	590	0
bin	600	0
bin	610	0
bin	620	0
bin	630	0
bin	640	0
bin	650	0
bin	660	0
bin	670	1831
bin	680	0
bin	690	0
bin	700	0
bin	710	0
bin	720	0
bin	730	0
bin	740	0
bin	750	0
bin	760	0
bin	770	0
bin	780	0
bin	790	0
scalar aodv50AdhocHighMobilityNetwork.host[0].wlan[0].queue droppedPacketsQueueOverflow:count 0
attr interpolationmode none
attr recordingmode count
attr source packetDropReasonIsQueueOverflow(packetDropped)
attr title "dropped packets: queue overflow, count"
attr unit pk
scalar aodv50AdhocHighMobilityNetwork.host[0].wlan[0].queue droppedPacketLengthsQueueOverflow:sum 0
attr interpolationmode none
attr recordingmode sum
attr source packetLength(packetDropReasonIsQueueOverflow(packetDropped))
attr title "dropped packet lengths: queue overflow, sum"
attr unit b
par aodv50AdhocHighMobilityNetwork.host[0].wlan[0].mac typename "\"inet.linklayer.acking.AckingMac\""
par aodv50AdhocHighMobilityNetwork.host[0].wlan[0].mac interfaceTableModule "\"aodv50AdhocHighMobilityNetwork.host[0].interfaceTable\""
par aodv50AdhocHighMobilityNetwork.host[0].wlan[0].mac address "\"auto\""
attr mutable ""
par aodv50AdhocHighMobilityNetwork.host[0].wlan[0].mac bitrate 1e+07bps
attr unit bps
par aodv50AdhocHighMobilityNetwork.host[0].wlan[0].mac mtu 4470B
attr unit B
par aodv50AdhocHighMobilityNetwork.host[0].wlan[0].mac headerLength 23B
attr unit B
par aodv50AdhocHighMobilityNetwork.host[0].wlan[0].mac promiscuous false
par aodv50AdhocHighMobilityNetwork.host[0].wlan[0].mac fullDuplex true
par aodv50AdhocHighMobilityNetwork.host[0].wlan[0].mac useAck true
par aodv50AdhocHighMobilityNetwork.host[0].wlan[0].mac ackTimeout 0.1s
attr unit s
scalar aodv50AdhocHighMobilityNetwork.host[0].wlan[0].mac rcvdPkFromLl:count 3542
attr interpolationmode none
attr recordingmode count
attr source packetReceivedFromLower
attr title "packets received from lower layer, count"
scalar aodv50AdhocHighMobilityNetwork.host[0].wlan[0].mac rcvdPkFromLl:sum(packetBytes) 357182
attr interpolationmode none
attr recordingmode sum(packetBytes)
attr source packetReceivedFromLower
attr title "packets received from lower layer, sum(packetBytes)"
scalar aodv50AdhocHighMobilityNetwork.host[0].wlan[0].mac sentDownPk:count 2014
attr interpolationmode none
attr recordingmode count
attr source packetSentToLower
attr title "packets sent to lower layer, count"
scalar aodv50AdhocHighMobilityNetwork.host[0].wlan[0].mac sentDownPk:sum(packetBytes) 208986
attr interpolationmode none
attr recordingmode sum(packetBytes)
attr source packetSentToLower
attr title "packets sent to lower layer, sum(packetBytes)"
scalar aodv50AdhocHighMobilityNetwork.host[0].wlan[0].mac rcvdPkFromHl:count 2014
attr interpolationmode none
attr recordingmode count
attr source packetReceivedFromUpper
attr title "packets received from higher layer, count"
scalar aodv50AdhocHighMobilityNetwork.host[0].wlan[0].mac rcvdPkFromHl:sum(packetBytes) 162664
attr interpolationmode none
attr recordingmode sum(packetBytes)
attr source packetReceivedFromUpper
attr title "packets received from higher layer, sum(packetBytes)"
scalar aodv50AdhocHighMobilityNetwork.host[0].wlan[0].mac passedUpPk:count 2487
attr interpolationmode none
attr recordingmode count
attr source packetSentToUpper
attr title "packets passed to higher layer, count"
scalar aodv50AdhocHighMobilityNetwork.host[0].wlan[0].mac passedUpPk:sum(packetBytes) 191452
attr interpolationmode none
attr recordingmode sum(packetBytes)
attr source packetSentToUpper
attr title "packets passed to higher layer, sum(packetBytes)"
scalar aodv50AdhocHighMobilityNetwork.host[0].wlan[0].mac packetDropIncorrectlyReceived:count 199
attr interpolationmode none
attr recordingmode count
attr source packetDropReasonIsIncorrectlyReceived(packetDropped)
attr title "packet drop: incorrectly received, count"
scalar aodv50AdhocHighMobilityNetwork.host[0].wlan[0].mac packetDropIncorrectlyReceived:sum(packetBytes) 19645
attr interpolationmode none
attr recordingmode sum(packetBytes)
attr source packetDropReasonIsIncorrectlyReceived(packetDropped)
attr title "packet drop: incorrectly received, sum(packetBytes)"
scalar aodv50AdhocHighMobilityNetwork.host[0].wlan[0].mac packetDropInterfaceDown:count 0
attr interpolationmode none
attr recordingmode count
attr source packetDropReasonIsInterfaceDown(packetDropped)
attr title "packet drop: interface down, count"
scalar aodv50AdhocHighMobilityNetwork.host[0].wlan[0].mac packetDropInterfaceDown:sum(packetBytes) 0
attr interpolationmode none
attr recordingmode sum(packetBytes)
attr source packetDropReasonIsInterfaceDown(packetDropped)
attr title "packet drop: interface down, sum(packetBytes)"
scalar aodv50AdhocHighMobilityNetwork.host[0].wlan[0].mac packetDropNotAddressedToUs:count 856
attr interpolationmode none
attr recordingmode count
attr source packetDropReasonIsNotAddressedToUs(packetDropped)
attr title "packet drop: not addressed to us, count"
scalar aodv50AdhocHighMobilityNetwork.host[0].wlan[0].mac packetDropNotAddressedToUs:sum(packetBytes) 88884
attr interpolationmode none
attr recordingmode sum(packetBytes)
attr source packetDropReasonIsNotAddressedToUs(packetDropped)
attr title "packet drop: not addressed to us, sum(packetBytes)"
scalar aodv50AdhocHighMobilityNetwork.host[0].wlan[0].mac linkBroken:count 64
attr interpolationmode none
attr recordingmode count
attr source linkBroken
attr title "link break, count"
par aodv50AdhocHighMobilityNetwork.host[0].wlan[0].radio.antenna typename "\"inet.physicallayer.wireless.common.antenna.IsotropicAntenna\""
par aodv50AdhocHighMobilityNetwork.host[0].wlan[0].radio.antenna mobilityModule "\"^.^.^.mobility\""
par aodv50AdhocHighMobilityNetwork.host[0].wlan[0].radio.antenna numAntennas 1
par aodv50AdhocHighMobilityNetwork.host[0].wlan[0].radio.transmitter typename "\"inet.physicallayer.wireless.unitdisk.UnitDiskTransmitter\""
par aodv50AdhocHighMobilityNetwork.host[0].wlan[0].radio.transmitter preambleDuration 0s
attr unit s
par aodv50AdhocHighMobilityNetwork.host[0].wlan[0].radio.transmitter headerLength 96b
attr unit b
par aodv50AdhocHighMobilityNetwork.host[0].wlan[0].radio.transmitter bitrate 1e+07bps
attr unit bps
par aodv50AdhocHighMobilityNetwork.host[0].wlan[0].radio.transmitter communicationRange 50m
attr unit m
par aodv50AdhocHighMobilityNetwork.host[0].wlan[0].radio.transmitter interferenceRange 100m
attr unit m
par aodv50AdhocHighMobilityNetwork.host[0].wlan[0].radio.transmitter detectionRange 100m
attr unit m
par aodv50AdhocHighMobilityNetwork.host[0].wlan[0].radio.receiver typename "\"inet.physicallayer.wireless.unitdisk.UnitDiskReceiver\""
par aodv50AdhocHighMobilityNetwork.host[0].wlan[0].radio.receiver ignoreInterference false
par aodv50AdhocHighMobilityNetwork.host[0].wlan[0].radio typename "\"inet.physicallayer.wireless.unitdisk.UnitDiskRadio\""
par aodv50AdhocHighMobilityNetwork.host[0].wlan[0].radio radioMediumModule "\"radioMedium\""
par aodv50AdhocHighMobilityNetwork.host[0].wlan[0].radio energySourceModule "\"\""
par aodv50AdhocHighMobilityNetwork.host[0].wlan[0].radio initialRadioMode "\"off\""
attr enum off,sleep,receiver,transmitter,transceiver
par aodv50AdhocHighMobilityNetwork.host[0].wlan[0].radio switchingTimes "\"ms 0 0 0 0 0 0 0 0 0 0 0 0 0 0 0 0 0 0 0 0 0 0 0 0 0\""
par aodv50AdhocHighMobilityNetwork.host[0].wlan[0].radio sendRawBytes false
par aodv50AdhocHighMobilityNetwork.host[0].wlan[0].radio separateTransmissionParts false
par aodv50AdhocHighMobilityNetwork.host[0].wlan[0].radio separateReceptionParts false
par aodv50AdhocHighMobilityNetwork.host[0].wlan[0].radio displayCommunicationRange false
par aodv50AdhocHighMobilityNetwork.host[0].wlan[0].radio displayInterferenceRange false
statistic aodv50AdhocHighMobilityNetwork.host[0].wlan[0].radio minSnir:histogram
field count 0
field mean nan
field stddev nan
field min nan
field max nan
field sum 0
field sqrsum 0
attr recordingmode histogram
attr source minimumSnir(packetSentToUpper)
attr title "Min SNIR"
bin	-inf	0
bin	0	0
bin	1	0
statistic aodv50AdhocHighMobilityNetwork.host[0].wlan[0].radio packetErrorRate:histogram
field count 3542
field mean 0.056182947487295
field stddev 0.23030718374489
field min 0
field max 1
field sum 199
field sqrsum 199
attr recordingmode histogram
attr source packetErrorRate(packetSentToUpper)
attr title "Packet error rate"
bin	-inf	0
bin	0	3343
bin	1	199
bin	2	0
statistic aodv50AdhocHighMobilityNetwork.host[0].wlan[0].radio bitErrorRate:histogram
field count 3542
field mean 0.056182947487295
field stddev 0.23030718374489
field min 0
field max 1
field sum 199
field sqrsum 199
attr recordingmode histogram
attr source bitErrorRate(packetSentToUpper)
attr title "Bit error rate"
bin	-inf	0
bin	0	3343
bin	1	199
bin	2	0
statistic aodv50AdhocHighMobilityNetwork.host[0].wlan[0].radio symbolErrorRate:histogram
field count 3542
field mean 0.056182947487295
field stddev 0.23030718374489
field min 0
field max 1
field sum 199
field sqrsum 199
attr recordingmode histogram
attr source symbolErrorRate(packetSentToUpper)
attr title "Symbol error rate"
bin	-inf	0
bin	0	3343
bin	1	199
bin	2	0
scalar aodv50AdhocHighMobilityNetwork.host[0].wlan[0].radio transmissionState:count 4029
attr interpolationmode sample-hold
attr recordingmode count
attr source transmissionStateChanged
attr title "Radio transmission state, count"
scalar aodv50AdhocHighMobilityNetwork.host[0].wlan[0].radio receptionState:count 8453
attr interpolationmode sample-hold
attr recordingmode count
attr source receptionStateChanged
attr title "Radio reception state, count"
scalar aodv50AdhocHighMobilityNetwork.host[0].wlan[0].radio radioMode:count 3
attr interpolationmode sample-hold
attr recordingmode count
attr source radioModeChanged
attr title "Radio mode, count"
par aodv50AdhocHighMobilityNetwork.host[0].wlan[0] typename "\"inet.linklayer.acking.AckingWirelessInterface\""
par aodv50AdhocHighMobilityNetwork.host[0].wlan[0] displayStringTextFormat "\"%a (%i)\\n%m\""
par aodv50AdhocHighMobilityNetwork.host[0].wlan[0] recordPcap false
par aodv50AdhocHighMobilityNetwork.host[0].wlan[0] numPcapRecorders 0
par aodv50AdhocHighMobilityNetwork.host[0].wlan[0] interfaceTableModule "\"aodv50AdhocHighMobilityNetwork.host[0].interfaceTable\""
par aodv50AdhocHighMobilityNetwork.host[0].wlan[0] energySourceModule "\"\""
par aodv50AdhocHighMobilityNetwork.host[0].wlan[0] bitrate 1e+07bps
attr unit bps
scalar aodv50AdhocHighMobilityNetwork.host[0].wlan[0] packetDropInterfaceDown:count 0
attr interpolationmode none
attr recordingmode count
attr source packetDropReasonIsInterfaceDown(packetDropped)
attr title "packet drops: interface down, count"
scalar aodv50AdhocHighMobilityNetwork.host[0].wlan[0] packetDropInterfaceDown:sum(packetBytes) 0
attr interpolationmode none
attr recordingmode sum(packetBytes)
attr source packetDropReasonIsInterfaceDown(packetDropped)
attr title "packet drops: interface down, sum(packetBytes)"
scalar aodv50AdhocHighMobilityNetwork.host[0].wlan[0] packetDropNoCarrier:count 0
attr interpolationmode none
attr recordingmode count
attr source packetDropReasonIsNoCarrier(packetDropped)
attr title "packet drops: no carrier, count"
scalar aodv50AdhocHighMobilityNetwork.host[0].wlan[0] packetDropNoCarrier:sum(packetBytes) 0
attr interpolationmode none
attr recordingmode sum(packetBytes)
attr source packetDropReasonIsNoCarrier(packetDropped)
attr title "packet drops: no carrier, sum(packetBytes)"
par aodv50AdhocHighMobilityNetwork.host[0].ipv4.transportIn.channel typename "\"ned.IdealChannel\""
par aodv50AdhocHighMobilityNetwork.host[0].ipv4.up.out[0].channel typename "\"ned.IdealChannel\""
par aodv50AdhocHighMobilityNetwork.host[0].ipv4.lp.out[2].channel typename "\"ned.IdealChannel\""
par aodv50AdhocHighMobilityNetwork.host[0].ipv4.ifIn.channel typename "\"ned.IdealChannel\""
par aodv50AdhocHighMobilityNetwork.host[0].ipv4.configurator typename "\"inet.networklayer.configurator.ipv4.Ipv4NodeConfigurator\""
par aodv50AdhocHighMobilityNetwork.host[0].ipv4.configurator interfaceTableModule "\"aodv50AdhocHighMobilityNetwork.host[0].interfaceTable\""
par aodv50AdhocHighMobilityNetwork.host[0].ipv4.configurator routingTableModule "\"aodv50AdhocHighMobilityNetwork.host[0].ipv4.routingTable\""
par aodv50AdhocHighMobilityNetwork.host[0].ipv4.configurator networkConfiguratorModule "\"configurator\""
par aodv50AdhocHighMobilityNetwork.host[0].ipv4.configurator configureRoutingTable true
par aodv50AdhocHighMobilityNetwork.host[0].ipv4.routingTable typename "\"inet.networklayer.ipv4.Ipv4RoutingTable\""
par aodv50AdhocHighMobilityNetwork.host[0].ipv4.routingTable interfaceTableModule "\"aodv50AdhocHighMobilityNetwork.host[0].interfaceTable\""
par aodv50AdhocHighMobilityNetwork.host[0].ipv4.routingTable routerId "\"auto\""
par aodv50AdhocHighMobilityNetwork.host[0].ipv4.routingTable netmaskRoutes "\"*\""
par aodv50AdhocHighMobilityNetwork.host[0].ipv4.routingTable forwarding true
par aodv50AdhocHighMobilityNetwork.host[0].ipv4.routingTable multicastForwarding false
par aodv50AdhocHighMobilityNetwork.host[0].ipv4.routingTable useAdminDist false
par aodv50AdhocHighMobilityNetwork.host[0].ipv4.routingTable routingFile "\"\""
par aodv50AdhocHighMobilityNetwork.host[0].ipv4.natTable typename "\"inet.networklayer.ipv4.Ipv4NatTable\""
par aodv50AdhocHighMobilityNetwork.host[0].ipv4.natTable networkProtocolModule "\"^.ip\""
par aodv50AdhocHighMobilityNetwork.host[0].ipv4.natTable config "<config/> at content:1"
par aodv50AdhocHighMobilityNetwork.host[0].ipv4.up typename "\"inet.common.MessageDispatcher\""
par aodv50AdhocHighMobilityNetwork.host[0].ipv4.up displayStringTextFormat "\"processed %p pk (%l)\""
par aodv50AdhocHighMobilityNetwork.host[0].ipv4.up forwardServiceRegistration true
par aodv50AdhocHighMobilityNetwork.host[0].ipv4.up forwardProtocolRegistration true
par aodv50AdhocHighMobilityNetwork.host[0].ipv4.igmp typename "\"inet.networklayer.ipv4.Igmpv2\""
par aodv50AdhocHighMobilityNetwork.host[0].ipv4.igmp interfaceTableModule "\"aodv50AdhocHighMobilityNetwork.host[0].interfaceTable\""
par aodv50AdhocHighMobilityNetwork.host[0].ipv4.igmp routingTableModule "\"aodv50AdhocHighMobilityNetwork.host[0].ipv4.routingTable\""
par aodv50AdhocHighMobilityNetwork.host[0].ipv4.igmp crcMode "\"declared\""
attr enum declared,computed
par aodv50AdhocHighMobilityNetwork.host[0].ipv4.igmp enabled true
par aodv50AdhocHighMobilityNetwork.host[0].ipv4.igmp robustnessVariable 2
par aodv50AdhocHighMobilityNetwork.host[0].ipv4.igmp queryInterval 125s
attr unit s
par aodv50AdhocHighMobilityNetwork.host[0].ipv4.igmp queryResponseInterval 10s
attr unit s
par aodv50AdhocHighMobilityNetwork.host[0].ipv4.igmp groupMembershipInterval 260s
attr unit s
par aodv50AdhocHighMobilityNetwork.host[0].ipv4.igmp otherQuerierPresentInterval 255s
attr unit s
par aodv50AdhocHighMobilityNetwork.host[0].ipv4.igmp startupQueryInterval 31.25s
attr unit s
par aodv50AdhocHighMobilityNetwork.host[0].ipv4.igmp startupQueryCount 2
par aodv50AdhocHighMobilityNetwork.host[0].ipv4.igmp lastMemberQueryInterval 1s
attr unit s
par aodv50AdhocHighMobilityNetwork.host[0].ipv4.igmp lastMemberQueryCount 2
par aodv50AdhocHighMobilityNetwork.host[0].ipv4.igmp unsolicitedReportInterval 10s
attr unit s
par aodv50AdhocHighMobilityNetwork.host[0].ipv4.icmp typename "\"inet.networklayer.ipv4.Icmp\""
par aodv50AdhocHighMobilityNetwork.host[0].ipv4.icmp interfaceTableModule "\"aodv50AdhocHighMobilityNetwork.host[0].interfaceTable\""
par aodv50AdhocHighMobilityNetwork.host[0].ipv4.icmp routingTableModule "\"aodv50AdhocHighMobilityNetwork.host[0].ipv4.routingTable\""
par aodv50AdhocHighMobilityNetwork.host[0].ipv4.icmp crcMode "\"declared\""
attr enum declared,computed
attr mutable ""
par aodv50AdhocHighMobilityNetwork.host[0].ipv4.icmp quoteLength 8B
attr mutable ""
attr unit B
par aodv50AdhocHighMobilityNetwork.host[0].ipv4.mp typename "\"inet.common.MessageDispatcher\""
par aodv50AdhocHighMobilityNetwork.host[0].ipv4.mp displayStringTextFormat "\"processed %p pk (%l)\""
par aodv50AdhocHighMobilityNetwork.host[0].ipv4.mp forwardServiceRegistration true
par aodv50AdhocHighMobilityNetwork.host[0].ipv4.mp forwardProtocolRegistration true
par aodv50AdhocHighMobilityNetwork.host[0].ipv4.ip typename "\"inet.networklayer.ipv4.Ipv4\""
par aodv50AdhocHighMobilityNetwork.host[0].ipv4.ip interfaceTableModule "\"aodv50AdhocHighMobilityNetwork.host[0].interfaceTable\""
par aodv50AdhocHighMobilityNetwork.host[0].ipv4.ip routingTableModule "\"aodv50AdhocHighMobilityNetwork.host[0].ipv4.routingTable\""
par aodv50AdhocHighMobilityNetwork.host[0].ipv4.ip arpModule "\"aodv50AdhocHighMobilityNetwork.host[0].ipv4.arp\""
par aodv50AdhocHighMobilityNetwork.host[0].ipv4.ip icmpModule "\"aodv50AdhocHighMobilityNetwork.host[0].ipv4.icmp\""
par aodv50AdhocHighMobilityNetwork.host[0].ipv4.ip crcMode "\"declared\""
attr enum declared,computed
par aodv50AdhocHighMobilityNetwork.host[0].ipv4.ip timeToLive 32
par aodv50AdhocHighMobilityNetwork.host[0].ipv4.ip multicastTimeToLive 32
par aodv50AdhocHighMobilityNetwork.host[0].ipv4.ip fragmentTimeout 60s
attr unit s
par aodv50AdhocHighMobilityNetwork.host[0].ipv4.ip limitedBroadcast false
par aodv50AdhocHighMobilityNetwork.host[0].ipv4.ip directBroadcastInterfaces "\"\""
scalar aodv50AdhocHighMobilityNetwork.host[0].ipv4.ip packetDropAddressResolutionFailed:count 2
attr interpolationmode none
attr recordingmode count
attr source packetDropReasonIsAddressResolutionFailed(packetDropped)
attr title "packet drop: address resolution failed, count"
scalar aodv50AdhocHighMobilityNetwork.host[0].ipv4.ip packetDropAddressResolutionFailed:sum(packetBytes) 96
attr interpolationmode none
attr recordingmode sum(packetBytes)
attr source packetDropReasonIsAddressResolutionFailed(packetDropped)
attr title "packet drop: address resolution failed, sum(packetBytes)"
scalar aodv50AdhocHighMobilityNetwork.host[0].ipv4.ip packetDropHopLimitReached:count 0
attr interpolationmode none
attr recordingmode count
attr source packetDropReasonIsHopLimitReached(packetDropped)
attr title "packet drop: hop limit reached, count"
scalar aodv50AdhocHighMobilityNetwork.host[0].ipv4.ip packetDropHopLimitReached:sum(packetBytes) 0
attr interpolationmode none
attr recordingmode sum(packetBytes)
attr source packetDropReasonIsHopLimitReached(packetDropped)
attr title "packet drop: hop limit reached, sum(packetBytes)"
scalar aodv50AdhocHighMobilityNetwork.host[0].ipv4.ip packetDropForwardingDisabled:count 0
attr interpolationmode none
attr recordingmode count
attr source packetDropReasonIsForwardingDisabled(packetDropped)
attr title "packet drop: forwarding disabled, count"
scalar aodv50AdhocHighMobilityNetwork.host[0].ipv4.ip packetDropForwardingDisabled:sum(packetBytes) 0
attr interpolationmode none
attr recordingmode sum(packetBytes)
attr source packetDropReasonIsForwardingDisabled(packetDropped)
attr title "packet drop: forwarding disabled, sum(packetBytes)"
scalar aodv50AdhocHighMobilityNetwork.host[0].ipv4.ip packetDropNoInterfaceFound:count 0
attr interpolationmode none
attr recordingmode count
attr source packetDropReasonIsNoInterfaceFound(packetDropped)
attr title "packet drop: no interface found, count"
scalar aodv50AdhocHighMobilityNetwork.host[0].ipv4.ip packetDropNoInterfaceFound:sum(packetBytes) 0
attr interpolationmode none
attr recordingmode sum(packetBytes)
attr source packetDropReasonIsNoInterfaceFound(packetDropped)
attr title "packet drop: no interface found, sum(packetBytes)"
scalar aodv50AdhocHighMobilityNetwork.host[0].ipv4.ip packetDropNoRouteFound:count 0
attr interpolationmode none
attr recordingmode count
attr source packetDropReasonIsNoRouteFound(packetDropped)
attr title "packet drop: no route found, count"
scalar aodv50AdhocHighMobilityNetwork.host[0].ipv4.ip packetDropNoRouteFound:sum(packetBytes) 0
attr interpolationmode none
attr recordingmode sum(packetBytes)
attr source packetDropReasonIsNoRouteFound(packetDropped)
attr title "packet drop: no route found, sum(packetBytes)"
scalar aodv50AdhocHighMobilityNetwork.host[0].ipv4.ip packetDropUndefined:count 0
attr interpolationmode none
attr recordingmode count
attr source packetDropReasonIsUndefined(packetDropped)
attr title "packet drop: undefined, count"
scalar aodv50AdhocHighMobilityNetwork.host[0].ipv4.ip packetDropUndefined:sum(packetBytes) 0
attr interpolationmode none
attr recordingmode sum(packetBytes)
attr source packetDropReasonIsUndefined(packetDropped)
attr title "packet drop: undefined, sum(packetBytes)"
par aodv50AdhocHighMobilityNetwork.host[0].ipv4.arp typename "\"inet.networklayer.arp.ipv4.Arp\""
par aodv50AdhocHighMobilityNetwork.host[0].ipv4.arp interfaceTableModule "\"aodv50AdhocHighMobilityNetwork.host[0].interfaceTable\""
par aodv50AdhocHighMobilityNetwork.host[0].ipv4.arp routingTableModule "\"aodv50AdhocHighMobilityNetwork.host[0].ipv4.routingTable\""
par aodv50AdhocHighMobilityNetwork.host[0].ipv4.arp retryTimeout 1s
attr unit s
par aodv50AdhocHighMobilityNetwork.host[0].ipv4.arp retryCount 3
par aodv50AdhocHighMobilityNetwork.host[0].ipv4.arp cacheTimeout 120s
attr unit s
par aodv50AdhocHighMobilityNetwork.host[0].ipv4.arp proxyArpInterfaces "\"\""
scalar aodv50AdhocHighMobilityNetwork.host[0].ipv4.arp arpReplySent:count 1
attr recordingmode count
attr source arpReplySent
attr title "ARP replies sent, count"
scalar aodv50AdhocHighMobilityNetwork.host[0].ipv4.arp arpReplySent:sum(packetBytes) 28
attr recordingmode sum(packetBytes)
attr source arpReplySent
attr title "ARP replies sent, sum(packetBytes)"
scalar aodv50AdhocHighMobilityNetwork.host[0].ipv4.arp arpRequestSent:count 8
attr recordingmode count
attr source arpRequestSent
attr title "ARP request sent, count"
scalar aodv50AdhocHighMobilityNetwork.host[0].ipv4.arp arpRequestSent:sum(packetBytes) 224
attr recordingmode sum(packetBytes)
attr source arpRequestSent
attr title "ARP request sent, sum(packetBytes)"
scalar aodv50AdhocHighMobilityNetwork.host[0].ipv4.arp arpResolutionFailed:count 2
attr recordingmode count
attr title "ARP failed resolutions, count"
scalar aodv50AdhocHighMobilityNetwork.host[0].ipv4.arp arpResolutionCompleted:count 12
attr recordingmode count
attr title "ARP completed resolutions, count"
scalar aodv50AdhocHighMobilityNetwork.host[0].ipv4.arp arpResolutionInitiated:count 4
attr recordingmode count
attr title "ARP initiated resolutions, count"
par aodv50AdhocHighMobilityNetwork.host[0].ipv4.lp typename "\"inet.common.MessageDispatcher\""
par aodv50AdhocHighMobilityNetwork.host[0].ipv4.lp displayStringTextFormat "\"processed %p pk (%l)\""
par aodv50AdhocHighMobilityNetwork.host[0].ipv4.lp forwardServiceRegistration true
par aodv50AdhocHighMobilityNetwork.host[0].ipv4.lp forwardProtocolRegistration true
par aodv50AdhocHighMobilityNetwork.host[0].ipv4 typename "\"inet.networklayer.ipv4.Ipv4NetworkLayer\""
par aodv50AdhocHighMobilityNetwork.host[0].ipv4 forwarding true
par aodv50AdhocHighMobilityNetwork.host[0].ipv4 multicastForwarding false
par aodv50AdhocHighMobilityNetwork.host[0].ipv4 interfaceTableModule "\"aodv50AdhocHighMobilityNetwork.host[0].interfaceTable\""
par aodv50AdhocHighMobilityNetwork.host[0].ipv4 displayStringTextFormat "\"%i\""
par aodv50AdhocHighMobilityNetwork.host[0].nl typename "\"inet.common.MessageDispatcher\""
par aodv50AdhocHighMobilityNetwork.host[0].nl displayStringTextFormat "\"processed %p pk (%l)\""
par aodv50AdhocHighMobilityNetwork.host[0].nl forwardServiceRegistration true
par aodv50AdhocHighMobilityNetwork.host[0].nl forwardProtocolRegistration true
par aodv50AdhocHighMobilityNetwork.host[0].udp typename "\"inet.transportlayer.udp.Udp\""
par aodv50AdhocHighMobilityNetwork.host[0].udp interfaceTableModule "\"aodv50AdhocHighMobilityNetwork.host[0].interfaceTable\""
par aodv50AdhocHighMobilityNetwork.host[0].udp icmpModule "\"^.ipv4.icmp\""
par aodv50AdhocHighMobilityNetwork.host[0].udp icmpv6Module "\"^.ipv6.icmpv6\""
par aodv50AdhocHighMobilityNetwork.host[0].udp crcMode "\"declared\""
attr enum disabled,declared,computed
par aodv50AdhocHighMobilityNetwork.host[0].udp defaultMulticastLoop true
scalar aodv50AdhocHighMobilityNetwork.host[0].udp packetReceived:count 509
attr interpolationmode none
attr recordingmode count
attr source packetReceived
attr title "packets received, count"
scalar aodv50AdhocHighMobilityNetwork.host[0].udp packetReceived:sum(packetBytes) 15848
attr interpolationmode none
attr recordingmode sum(packetBytes)
attr source packetReceived
attr title "packets received, sum(packetBytes)"
scalar aodv50AdhocHighMobilityNetwork.host[0].udp packetSent:count 176
attr interpolationmode none
attr recordingmode count
attr source packetSent
attr title "packets sent, count"
scalar aodv50AdhocHighMobilityNetwork.host[0].udp packetSent:sum(packetBytes) 5184
attr interpolationmode none
attr recordingmode sum(packetBytes)
attr source packetSent
attr title "packets sent, sum(packetBytes)"
scalar aodv50AdhocHighMobilityNetwork.host[0].udp passedUpPk:count 509
attr interpolationmode none
attr recordingmode count
attr source packetSentToUpper
attr title "packets passed up, count"
scalar aodv50AdhocHighMobilityNetwork.host[0].udp droppedPkWrongPort:count 0
attr interpolationmode none
attr recordingmode count
attr source packetDropReasonIsNoPortFound(packetDropped)
attr title "packets dropped (wrong port), count"
scalar aodv50AdhocHighMobilityNetwork.host[0].udp droppedPkBadChecksum:count 0
attr interpolationmode none
attr recordingmode count
attr source packetDropReasonIsIncorrectlyReceived(packetDropped)
attr title "packets dropped (checksum error), count"
par aodv50AdhocHighMobilityNetwork.host[0].tcp typename "\"inet.transportlayer.tcp.Tcp\""
par aodv50AdhocHighMobilityNetwork.host[0].tcp crcMode "\"declared\""
attr enum declared,computed
par aodv50AdhocHighMobilityNetwork.host[0].tcp advertisedWindow 7504
par aodv50AdhocHighMobilityNetwork.host[0].tcp delayedAcksEnabled false
par aodv50AdhocHighMobilityNetwork.host[0].tcp nagleEnabled true
par aodv50AdhocHighMobilityNetwork.host[0].tcp limitedTransmitEnabled false
par aodv50AdhocHighMobilityNetwork.host[0].tcp increasedIWEnabled false
par aodv50AdhocHighMobilityNetwork.host[0].tcp sackSupport false
par aodv50AdhocHighMobilityNetwork.host[0].tcp windowScalingSupport false
par aodv50AdhocHighMobilityNetwork.host[0].tcp windowScalingFactor -1
par aodv50AdhocHighMobilityNetwork.host[0].tcp timestampSupport false
par aodv50AdhocHighMobilityNetwork.host[0].tcp mss 536
par aodv50AdhocHighMobilityNetwork.host[0].tcp msl 120s
attr unit s
par aodv50AdhocHighMobilityNetwork.host[0].tcp tcpAlgorithmClass "\"TcpReno\""
par aodv50AdhocHighMobilityNetwork.host[0].tcp useDataNotification false
par aodv50AdhocHighMobilityNetwork.host[0].tcp dupthresh 3
par aodv50AdhocHighMobilityNetwork.host[0].tcp initialSsthresh 4294967295
par aodv50AdhocHighMobilityNetwork.host[0].tcp stopOperationExtraTime 0s
attr unit s
par aodv50AdhocHighMobilityNetwork.host[0].tcp stopOperationTimeout 2s
attr unit s
par aodv50AdhocHighMobilityNetwork.host[0].tcp ecnWillingness false
par aodv50AdhocHighMobilityNetwork.host[0].tcp dctcpGamma 0.0625
par aodv50AdhocHighMobilityNetwork.host[0].tn typename "\"inet.common.MessageDispatcher\""
par aodv50AdhocHighMobilityNetwork.host[0].tn displayStringTextFormat "\"processed %p pk (%l)\""
par aodv50AdhocHighMobilityNetwork.host[0].tn forwardServiceRegistration true
par aodv50AdhocHighMobilityNetwork.host[0].tn forwardProtocolRegistration true
par aodv50AdhocHighMobilityNetwork.host[0].app[0] typename "\"inet.applications.pingapp.PingApp\""
par aodv50AdhocHighMobilityNetwork.host[0].app[0] destAddr "\"host[0,24](ipv4)\""
par aodv50AdhocHighMobilityNetwork.host[0].app[0] srcAddr "\"\""
par aodv50AdhocHighMobilityNetwork.host[0].app[0] packetSize 56B
attr unit B
par aodv50AdhocHighMobilityNetwork.host[0].app[0] sendInterval "uniform(0.1s, 0.1s)"
attr unit s
par aodv50AdhocHighMobilityNetwork.host[0].app[0] hopLimit -1
par aodv50AdhocHighMobilityNetwork.host[0].app[0] count -1
par aodv50AdhocHighMobilityNetwork.host[0].app[0] startTime 1s
attr unit s
par aodv50AdhocHighMobilityNetwork.host[0].app[0] stopTime -1s
attr unit s
par aodv50AdhocHighMobilityNetwork.host[0].app[0] sleepDuration 0s
attr unit s
par aodv50AdhocHighMobilityNetwork.host[0].app[0] continuous false
par aodv50AdhocHighMobilityNetwork.host[0].app[0] printPing true
par aodv50AdhocHighMobilityNetwork.host[0].app[0] crcMode "\"declared\""
attr enum declared,computed
par aodv50AdhocHighMobilityNetwork.host[0].app[0] networkProtocol "\"\""
par aodv50AdhocHighMobilityNetwork.host[0].app[0] stopOperationExtraTime -1s
attr unit s
par aodv50AdhocHighMobilityNetwork.host[0].app[0] stopOperationTimeout 2s
attr unit s
scalar aodv50AdhocHighMobilityNetwork.host[0].app[0] "Pings sent" 1191
scalar aodv50AdhocHighMobilityNetwork.host[0].app[0] "ping loss rate (%)" 0
scalar aodv50AdhocHighMobilityNetwork.host[0].app[0] "ping out-of-order rate (%)" 0
scalar aodv50AdhocHighMobilityNetwork.host[0].app[0] pingRxSeq:count 1191
attr interpolationmode none
attr recordingmode count
attr title "ping rx seq, count"
scalar aodv50AdhocHighMobilityNetwork.host[0].app[0] pingTxSeq:count 1191
attr interpolationmode none
attr recordingmode count
attr title "ping tx seq, count"
scalar aodv50AdhocHighMobilityNetwork.host[0].app[0] numOutOfOrderArrivals:last nan
attr interpolationmode none
attr recordingmode last
attr title "ping out-of-order arrivals, last"
scalar aodv50AdhocHighMobilityNetwork.host[0].app[0] numLost:last nan
attr interpolationmode none
attr recordingmode last
attr title "pings lost, last"
statistic aodv50AdhocHighMobilityNetwork.host[0].app[0] rtt:histogram
field count 0
field mean nan
field stddev nan
field min nan
field max nan
field sum 0
field sqrsum 0
attr interpolationmode none
attr recordingmode histogram
attr title "ping round-trip time"
attr unit s
bin	-inf	0
bin	0	0
bin	1	0
par aodv50AdhocHighMobilityNetwork.host[0].at typename "\"inet.common.MessageDispatcher\""
par aodv50AdhocHighMobilityNetwork.host[0].at displayStringTextFormat "\"processed %p pk (%l)\""
par aodv50AdhocHighMobilityNetwork.host[0].at forwardServiceRegistration true
par aodv50AdhocHighMobilityNetwork.host[0].at forwardProtocolRegistration true
par aodv50AdhocHighMobilityNetwork.host[0].aodv typename "\"inet.routing.aodv.Aodv\""
par aodv50AdhocHighMobilityNetwork.host[0].aodv routingTableModule "\"^.ipv4.routingTable\""
par aodv50AdhocHighMobilityNetwork.host[0].aodv interfaceTableModule "\"aodv50AdhocHighMobilityNetwork.host[0].interfaceTable\""
par aodv50AdhocHighMobilityNetwork.host[0].aodv networkProtocolModule "\"^.ipv4.ip\""
par aodv50AdhocHighMobilityNetwork.host[0].aodv askGratuitousRREP false
par aodv50AdhocHighMobilityNetwork.host[0].aodv useHelloMessages false
par aodv50AdhocHighMobilityNetwork.host[0].aodv useLocalRepair false
par aodv50AdhocHighMobilityNetwork.host[0].aodv destinationOnlyFlag false
par aodv50AdhocHighMobilityNetwork.host[0].aodv udpPort 654
par aodv50AdhocHighMobilityNetwork.host[0].aodv interface "\"wlan0\""
par aodv50AdhocHighMobilityNetwork.host[0].aodv maxPeriodicJitter 0.25s
attr unit s
par aodv50AdhocHighMobilityNetwork.host[0].aodv periodicJitter "uniform(0s, maxPeriodicJitter)"
attr unit s
par aodv50AdhocHighMobilityNetwork.host[0].aodv maxJitter 0.005s
attr unit s
par aodv50AdhocHighMobilityNetwork.host[0].aodv jitter "uniform(0ms, maxJitter)"
attr unit s
par aodv50AdhocHighMobilityNetwork.host[0].aodv helloInterval 1s
attr unit s
par aodv50AdhocHighMobilityNetwork.host[0].aodv allowedHelloLoss 2
par aodv50AdhocHighMobilityNetwork.host[0].aodv activeRouteTimeout 3s
attr unit s
par aodv50AdhocHighMobilityNetwork.host[0].aodv netDiameter 35
par aodv50AdhocHighMobilityNetwork.host[0].aodv nodeTraversalTime 0.04s
attr unit s
par aodv50AdhocHighMobilityNetwork.host[0].aodv rerrRatelimit 10
par aodv50AdhocHighMobilityNetwork.host[0].aodv rreqRetries 2
par aodv50AdhocHighMobilityNetwork.host[0].aodv rreqRatelimit 10
par aodv50AdhocHighMobilityNetwork.host[0].aodv timeoutBuffer 2
par aodv50AdhocHighMobilityNetwork.host[0].aodv ttlStart 2
par aodv50AdhocHighMobilityNetwork.host[0].aodv ttlIncrement 2
par aodv50AdhocHighMobilityNetwork.host[0].aodv ttlThreshold 7
par aodv50AdhocHighMobilityNetwork.host[0].aodv localAddTTL 2
par aodv50AdhocHighMobilityNetwork.host[0].aodv myRouteTimeout 6s
attr unit s
par aodv50AdhocHighMobilityNetwork.host[0].aodv deletePeriod 15s
attr unit s
par aodv50AdhocHighMobilityNetwork.host[0].aodv blacklistTimeout 5.6s
attr unit s
par aodv50AdhocHighMobilityNetwork.host[0].aodv netTraversalTime 2.8s
attr unit s
par aodv50AdhocHighMobilityNetwork.host[0].aodv nextHopWait 0.05s
attr unit s
par aodv50AdhocHighMobilityNetwork.host[0].aodv pathDiscoveryTime 5.6s
attr unit s
par aodv50AdhocHighMobilityNetwork.host[0] typename "\"inet.node.aodv.AodvRouter\""
par aodv50AdhocHighMobilityNetwork.host[0] hasStatus true
par aodv50AdhocHighMobilityNetwork.host[0] osgModel "\"\""
par aodv50AdhocHighMobilityNetwork.host[0] osgModelColor "\"\""
par aodv50AdhocHighMobilityNetwork.host[0] canvasImage "\"\""
par aodv50AdhocHighMobilityNetwork.host[0] canvasImageColor "\"\""
par aodv50AdhocHighMobilityNetwork.host[0] recordPcap false
par aodv50AdhocHighMobilityNetwork.host[0] numPcapRecorders 0
par aodv50AdhocHighMobilityNetwork.host[0] numLoInterfaces 1
par aodv50AdhocHighMobilityNetwork.host[0] numWlanInterfaces 1
par aodv50AdhocHighMobilityNetwork.host[0] numEthInterfaces 0
par aodv50AdhocHighMobilityNetwork.host[0] numPppInterfaces 0
par aodv50AdhocHighMobilityNetwork.host[0] numTunInterfaces 0
par aodv50AdhocHighMobilityNetwork.host[0] numVirtInterfaces 0
par aodv50AdhocHighMobilityNetwork.host[0] fcsMode "\"declared\""
attr enum declared,computed
par aodv50AdhocHighMobilityNetwork.host[0] hasIpv4 true
par aodv50AdhocHighMobilityNetwork.host[0] hasIpv6 false
par aodv50AdhocHighMobilityNetwork.host[0] hasGn false
par aodv50AdhocHighMobilityNetwork.host[0] forwarding true
par aodv50AdhocHighMobilityNetwork.host[0] multicastForwarding false
par aodv50AdhocHighMobilityNetwork.host[0] hasUdp true
par aodv50AdhocHighMobilityNetwork.host[0] hasTcp true
par aodv50AdhocHighMobilityNetwork.host[0] hasSctp false
par aodv50AdhocHighMobilityNetwork.host[0] numApps 1
par aodv50AdhocHighMobilityNetwork.host[1].radioIn[0].channel typename "\"ned.IdealChannel\""
par aodv50AdhocHighMobilityNetwork.host[1].status typename "\"inet.common.lifecycle.NodeStatus\""
par aodv50AdhocHighMobilityNetwork.host[1].status initialStatus "\"UP\""
par aodv50AdhocHighMobilityNetwork.host[1].mobility typename "\"inet.mobility.single.MassMobility\""
par aodv50AdhocHighMobilityNetwork.host[1].mobility subjectModule "\"^\""
par aodv50AdhocHighMobilityNetwork.host[1].mobility coordinateSystemModule "\"\""
par aodv50AdhocHighMobilityNetwork.host[1].mobility displayStringTextFormat "\"p: %p\\nv: %v\""
attr mutable ""
par aodv50AdhocHighMobilityNetwork.host[1].mobility updateDisplayString true
par aodv50AdhocHighMobilityNetwork.host[1].mobility constraintAreaMinX 0m
attr unit m
par aodv50AdhocHighMobilityNetwork.host[1].mobility constraintAreaMinY 0m
attr unit m
par aodv50AdhocHighMobilityNetwork.host[1].mobility constraintAreaMinZ 0m
attr unit m
par aodv50AdhocHighMobilityNetwork.host[1].mobility constraintAreaMaxX 600m
attr unit m
par aodv50AdhocHighMobilityNetwork.host[1].mobility constraintAreaMaxY 600m
attr unit m
par aodv50AdhocHighMobilityNetwork.host[1].mobility constraintAreaMaxZ 0m
attr unit m
par aodv50AdhocHighMobilityNetwork.host[1].mobility updateInterval 0.1s
attr unit s
par aodv50AdhocHighMobilityNetwork.host[1].mobility faceForward true
par aodv50AdhocHighMobilityNetwork.host[1].mobility initialX 0.0686286m
attr unit m
par aodv50AdhocHighMobilityNetwork.host[1].mobility initialY 76.8747m
attr unit m
par aodv50AdhocHighMobilityNetwork.host[1].mobility initialZ 0m
attr unit m
par aodv50AdhocHighMobilityNetwork.host[1].mobility initialMovementHeading 359.655deg
attr unit deg
par aodv50AdhocHighMobilityNetwork.host[1].mobility initialMovementElevation 0deg
attr unit deg
par aodv50AdhocHighMobilityNetwork.host[1].mobility initFromDisplayString true
par aodv50AdhocHighMobilityNetwork.host[1].mobility changeInterval "uniform(1s, 1s)"
attr unit s
par aodv50AdhocHighMobilityNetwork.host[1].mobility angleDelta "uniform(0deg, 360deg)"
attr unit deg
par aodv50AdhocHighMobilityNetwork.host[1].mobility rotationAxisAngle 0deg
attr unit deg
par aodv50AdhocHighMobilityNetwork.host[1].mobility speed "normal(5mps, 5mps)"
attr mutable ""
attr unit mps
par aodv50AdhocHighMobilityNetwork.host[1].interfaceTable typename "\"inet.networklayer.common.InterfaceTable\""
par aodv50AdhocHighMobilityNetwork.host[1].interfaceTable displayAddresses false
par aodv50AdhocHighMobilityNetwork.host[1].cb typename "\"inet.common.MessageDispatcher\""
par aodv50AdhocHighMobilityNetwork.host[1].cb displayStringTextFormat "\"processed %p pk (%l)\""
par aodv50AdhocHighMobilityNetwork.host[1].cb forwardServiceRegistration true
par aodv50AdhocHighMobilityNetwork.host[1].cb forwardProtocolRegistration true
par aodv50AdhocHighMobilityNetwork.host[1].bl typename "\"inet.common.MessageDispatcher\""
par aodv50AdhocHighMobilityNetwork.host[1].bl displayStringTextFormat "\"processed %p pk (%l)\""
par aodv50AdhocHighMobilityNetwork.host[1].bl forwardServiceRegistration true
par aodv50AdhocHighMobilityNetwork.host[1].bl forwardProtocolRegistration true
par aodv50AdhocHighMobilityNetwork.host[1].li typename "\"inet.common.MessageDispatcher\""
par aodv50AdhocHighMobilityNetwork.host[1].li displayStringTextFormat "\"processed %p pk (%l)\""
par aodv50AdhocHighMobilityNetwork.host[1].li forwardServiceRegistration true
par aodv50AdhocHighMobilityNetwork.host[1].li forwardProtocolRegistration true
par aodv50AdhocHighMobilityNetwork.host[1].lo[0].upperLayerIn.channel typename "\"ned.IdealChannel\""
par aodv50AdhocHighMobilityNetwork.host[1].lo[0].lo.upperLayerOut.channel typename "\"ned.IdealChannel\""
par aodv50AdhocHighMobilityNetwork.host[1].lo[0].lo typename "\"inet.linklayer.loopback.Loopback\""
par aodv50AdhocHighMobilityNetwork.host[1].lo[0].lo interfaceTableModule "\"aodv50AdhocHighMobilityNetwork.host[1].interfaceTable\""
par aodv50AdhocHighMobilityNetwork.host[1].lo[0].lo mtu 4470B
attr unit B
scalar aodv50AdhocHighMobilityNetwork.host[1].lo[0].lo rcvdPkFromHl:count 0
attr interpolationmode none
attr recordingmode count
attr source packetReceivedFromUpper
attr title "packets received from higher layer, count"
scalar aodv50AdhocHighMobilityNetwork.host[1].lo[0].lo rcvdPkFromHl:sum(packetBytes) 0
attr interpolationmode none
attr recordingmode sum(packetBytes)
attr source packetReceivedFromUpper
attr title "packets received from higher layer, sum(packetBytes)"
scalar aodv50AdhocHighMobilityNetwork.host[1].lo[0].lo passedUpPk:count 0
attr interpolationmode none
attr recordingmode count
attr source packetSentToUpper
attr title "packets passed to higher layer, count"
scalar aodv50AdhocHighMobilityNetwork.host[1].lo[0].lo passedUpPk:sum(packetBytes) 0
attr interpolationmode none
attr recordingmode sum(packetBytes)
attr source packetSentToUpper
attr title "packets passed to higher layer, sum(packetBytes)"
par aodv50AdhocHighMobilityNetwork.host[1].lo[0] typename "\"inet.linklayer.loopback.LoopbackInterface\""
par aodv50AdhocHighMobilityNetwork.host[1].lo[0] displayStringTextFormat "\"%a (%i)\\n%m\""
par aodv50AdhocHighMobilityNetwork.host[1].lo[0] recordPcap false
par aodv50AdhocHighMobilityNetwork.host[1].lo[0] numPcapRecorders 0
par aodv50AdhocHighMobilityNetwork.host[1].lo[0] interfaceTableModule "\"aodv50AdhocHighMobilityNetwork.host[1].interfaceTable\""
scalar aodv50AdhocHighMobilityNetwork.host[1].lo[0] packetDropInterfaceDown:count 0
attr interpolationmode none
attr recordingmode count
attr source packetDropReasonIsInterfaceDown(packetDropped)
attr title "packet drops: interface down, count"
scalar aodv50AdhocHighMobilityNetwork.host[1].lo[0] packetDropInterfaceDown:sum(packetBytes) 0
attr interpolationmode none
attr recordingmode sum(packetBytes)
attr source packetDropReasonIsInterfaceDown(packetDropped)
attr title "packet drops: interface down, sum(packetBytes)"
scalar aodv50AdhocHighMobilityNetwork.host[1].lo[0] packetDropNoCarrier:count 0
attr interpolationmode none
attr recordingmode count
attr source packetDropReasonIsNoCarrier(packetDropped)
attr title "packet drops: no carrier, count"
scalar aodv50AdhocHighMobilityNetwork.host[1].lo[0] packetDropNoCarrier:sum(packetBytes) 0
attr interpolationmode none
attr recordingmode sum(packetBytes)
attr source packetDropReasonIsNoCarrier(packetDropped)
attr title "packet drops: no carrier, sum(packetBytes)"
par aodv50AdhocHighMobilityNetwork.host[1].wlan[0].upperLayerIn.channel typename "\"ned.IdealChannel\""
par aodv50AdhocHighMobilityNetwork.host[1].wlan[0].radioIn.channel typename "\"ned.IdealChannel\""
par aodv50AdhocHighMobilityNetwork.host[1].wlan[0].mac.upperLayerOut.channel typename "\"ned.IdealChannel\""
par aodv50AdhocHighMobilityNetwork.host[1].wlan[0].queue typename "\"inet.queueing.queue.DropTailQueue\""
par aodv50AdhocHighMobilityNetwork.host[1].wlan[0].queue displayStringTextFormat "\"contains %p pk (%l) pushed %u\\npulled %o removed %r dropped %d\""
par aodv50AdhocHighMobilityNetwork.host[1].wlan[0].queue packetCapacity 100
par aodv50AdhocHighMobilityNetwork.host[1].wlan[0].queue dataCapacity -1b
attr unit b
par aodv50AdhocHighMobilityNetwork.host[1].wlan[0].queue dropperClass "\"inet::queueing::PacketAtCollectionEndDropper\""
par aodv50AdhocHighMobilityNetwork.host[1].wlan[0].queue comparatorClass "\"\""
par aodv50AdhocHighMobilityNetwork.host[1].wlan[0].queue bufferModule "\"\""
scalar aodv50AdhocHighMobilityNetwork.host[1].wlan[0].queue queueLength:last 0
attr autoWarmupFilter false
attr interpolationmode sample-hold
attr recordingmode last
attr source "warmup(atomic(constant0(packetPushEnded) + count(packetPushStarted) - count(packetPulled) - count(packetRemoved) - count(packetDropped)))"
attr title "queue length, last"
attr unit pk
scalar aodv50AdhocHighMobilityNetwork.host[1].wlan[0].queue queueLength:max 0
attr autoWarmupFilter false
attr interpolationmode sample-hold
attr recordingmode max
attr source "warmup(atomic(constant0(packetPushEnded) + count(packetPushStarted) - count(packetPulled) - count(packetRemoved) - count(packetDropped)))"
attr title "queue length, max"
attr unit pk
scalar aodv50AdhocHighMobilityNetwork.host[1].wlan[0].queue queueLength:timeavg 0
attr autoWarmupFilter false
attr interpolationmode sample-hold
attr recordingmode timeavg
attr source "warmup(atomic(constant0(packetPushEnded) + count(packetPushStarted) - count(packetPulled) - count(packetRemoved) - count(packetDropped)))"
attr title "queue length, timeavg"
attr unit pk
scalar aodv50AdhocHighMobilityNetwork.host[1].wlan[0].queue queueBitLength:last 0
attr autoWarmupFilter false
attr interpolationmode sample-hold
attr recordingmode last
attr source "warmup(atomic(constant0(packetPushEnded) + sum(packetLength(packetPushStarted)) - sum(packetLength(packetPulled)) - sum(packetLength(packetRemoved)) - sum(packetLength(packetDropped))))"
attr title "queue bit length, last"
attr unit b
scalar aodv50AdhocHighMobilityNetwork.host[1].wlan[0].queue queueBitLength:max 0
attr autoWarmupFilter false
attr interpolationmode sample-hold
attr recordingmode max
attr source "warmup(atomic(constant0(packetPushEnded) + sum(packetLength(packetPushStarted)) - sum(packetLength(packetPulled)) - sum(packetLength(packetRemoved)) - sum(packetLength(packetDropped))))"
attr title "queue bit length, max"
attr unit b
scalar aodv50AdhocHighMobilityNetwork.host[1].wlan[0].queue queueBitLength:timeavg 0
attr autoWarmupFilter false
attr interpolationmode sample-hold
attr recordingmode timeavg
attr source "warmup(atomic(constant0(packetPushEnded) + sum(packetLength(packetPushStarted)) - sum(packetLength(packetPulled)) - sum(packetLength(packetRemoved)) - sum(packetLength(packetDropped))))"
attr title "queue bit length, timeavg"
attr unit b
statistic aodv50AdhocHighMobilityNetwork.host[1].wlan[0].queue queueingTime:histogram
field count 71
field mean 0
field stddev 0
field min 0
field max 0
field sum 0
field sqrsum 0
attr interpolationmode none
attr recordingmode histogram
attr source queueingTime(packetPulled)
attr title "queueing times"
attr unit s
bin	-inf	0
bin	-0.5	0
bin	-0.48	0
bin	-0.46	0
bin	-0.44	0
bin	-0.42	0
bin	-0.4	0
bin	-0.38	0
bin	-0.36	0
bin	-0.34	0
bin	-0.32	0
bin	-0.3	0
bin	-0.28	0
bin	-0.26	0
bin	-0.24	0
bin	-0.22	0
bin	-0.2	0
bin	-0.18	0
bin	-0.16	0
bin	-0.14	0
bin	-0.12	0
bin	-0.1	0
bin	-0.08	0
bin	-0.06	0
bin	-0.04	0
bin	-0.02	0
bin	0	71
bin	0.02	0
bin	0.04	0
bin	0.06	0
bin	0.08	0
bin	0.1	0
bin	0.12	0
bin	0.14	0
bin	0.16	0
bin	0.18	0
bin	0.2	0
bin	0.22	0
bin	0.24	0
bin	0.26	0
bin	0.28	0
bin	0.3	0
bin	0.32	0
bin	0.34	0
bin	0.36	0
bin	0.38	0
bin	0.4	0
bin	0.42	0
bin	0.44	0
bin	0.46	0
bin	0.48	0
bin	0.5	0
scalar aodv50AdhocHighMobilityNetwork.host[1].wlan[0].queue outgoingPackets:count 71
attr recordingmode count
attr source packetPulled
attr title "outgoing packets, count"
attr unit pk
scalar aodv50AdhocHighMobilityNetwork.host[1].wlan[0].queue outgoingPacketLengths:sum 29536
attr interpolationmode none
attr recordingmode sum
attr source packetLength(packetPulled)
attr title "outgoing packet lengths, sum"
attr unit b
statistic aodv50AdhocHighMobilityNetwork.host[1].wlan[0].queue outgoingPacketLengths:histogram
field count 71
field mean 416
field stddev 0
field min 416
field max 416
field sum 29536
field sqrsum 12286976
attr interpolationmode none
attr recordingmode histogram
attr source packetLength(packetPulled)
attr title "outgoing packet lengths"
attr unit b
bin	-inf	0
bin	415	0
bin	416	71
bin	417	0
statistic aodv50AdhocHighMobilityNetwork.host[1].wlan[0].queue flowQueueingTime:histogram
field count 0
field mean nan
field stddev nan
field min nan
field max nan
field sum 0
field sqrsum 0
attr interpolationmode none
attr recordingmode histogram
attr source queueingTime(demuxFlow(packetPulled))
attr title "flow queueing times"
attr unit s
bin	-inf	0
bin	0	0
bin	1	0
scalar aodv50AdhocHighMobilityNetwork.host[1].wlan[0].queue incomingPackets:count 71
attr recordingmode count
attr source packetPushStarted
attr title "incoming packets, count"
attr unit pk
scalar aodv50AdhocHighMobilityNetwork.host[1].wlan[0].queue incomingPacketLengths:sum 29536
attr interpolationmode none
attr recordingmode sum
attr source packetLength(packetPushStarted)
attr title "incoming packet lengths, sum"
attr unit b
statistic aodv50AdhocHighMobilityNetwork.host[1].wlan[0].queue incomingPacketLengths:histogram
field count 71
field mean 416
field stddev 0
field min 416
field max 416
field sum 29536
field sqrsum 12286976
attr interpolationmode none
attr recordingmode histogram
attr source packetLength(packetPushStarted)
attr title "incoming packet lengths"
attr unit b
bin	-inf	0
bin	415	0
bin	416	71
bin	417	0
scalar aodv50AdhocHighMobilityNetwork.host[1].wlan[0].queue droppedPacketsQueueOverflow:count 0
attr interpolationmode none
attr recordingmode count
attr source packetDropReasonIsQueueOverflow(packetDropped)
attr title "dropped packets: queue overflow, count"
attr unit pk
scalar aodv50AdhocHighMobilityNetwork.host[1].wlan[0].queue droppedPacketLengthsQueueOverflow:sum 0
attr interpolationmode none
attr recordingmode sum
attr source packetLength(packetDropReasonIsQueueOverflow(packetDropped))
attr title "dropped packet lengths: queue overflow, sum"
attr unit b
par aodv50AdhocHighMobilityNetwork.host[1].wlan[0].mac typename "\"inet.linklayer.acking.AckingMac\""
par aodv50AdhocHighMobilityNetwork.host[1].wlan[0].mac interfaceTableModule "\"aodv50AdhocHighMobilityNetwork.host[1].interfaceTable\""
par aodv50AdhocHighMobilityNetwork.host[1].wlan[0].mac address "\"auto\""
attr mutable ""
par aodv50AdhocHighMobilityNetwork.host[1].wlan[0].mac bitrate 1e+07bps
attr unit bps
par aodv50AdhocHighMobilityNetwork.host[1].wlan[0].mac mtu 4470B
attr unit B
par aodv50AdhocHighMobilityNetwork.host[1].wlan[0].mac headerLength 23B
attr unit B
par aodv50AdhocHighMobilityNetwork.host[1].wlan[0].mac promiscuous false
par aodv50AdhocHighMobilityNetwork.host[1].wlan[0].mac fullDuplex true
par aodv50AdhocHighMobilityNetwork.host[1].wlan[0].mac useAck true
par aodv50AdhocHighMobilityNetwork.host[1].wlan[0].mac ackTimeout 0.1s
attr unit s
scalar aodv50AdhocHighMobilityNetwork.host[1].wlan[0].mac rcvdPkFromLl:count 0
attr interpolationmode none
attr recordingmode count
attr source packetReceivedFromLower
attr title "packets received from lower layer, count"
scalar aodv50AdhocHighMobilityNetwork.host[1].wlan[0].mac rcvdPkFromLl:sum(packetBytes) 0
attr interpolationmode none
attr recordingmode sum(packetBytes)
attr source packetReceivedFromLower
attr title "packets received from lower layer, sum(packetBytes)"
scalar aodv50AdhocHighMobilityNetwork.host[1].wlan[0].mac sentDownPk:count 71
attr interpolationmode none
attr recordingmode count
attr source packetSentToLower
attr title "packets sent to lower layer, count"
scalar aodv50AdhocHighMobilityNetwork.host[1].wlan[0].mac sentDownPk:sum(packetBytes) 5325
attr interpolationmode none
attr recordingmode sum(packetBytes)
attr source packetSentToLower
attr title "packets sent to lower layer, sum(packetBytes)"
scalar aodv50AdhocHighMobilityNetwork.host[1].wlan[0].mac rcvdPkFromHl:count 71
attr interpolationmode none
attr recordingmode count
attr source packetReceivedFromUpper
attr title "packets received from higher layer, count"
scalar aodv50AdhocHighMobilityNetwork.host[1].wlan[0].mac rcvdPkFromHl:sum(packetBytes) 3692
attr interpolationmode none
attr recordingmode sum(packetBytes)
attr source packetReceivedFromUpper
attr title "packets received from higher layer, sum(packetBytes)"
scalar aodv50AdhocHighMobilityNetwork.host[1].wlan[0].mac passedUpPk:count 0
attr interpolationmode none
attr recordingmode count
attr source packetSentToUpper
attr title "packets passed to higher layer, count"
scalar aodv50AdhocHighMobilityNetwork.host[1].wlan[0].mac passedUpPk:sum(packetBytes) 0
attr interpolationmode none
attr recordingmode sum(packetBytes)
attr source packetSentToUpper
attr title "packets passed to higher layer, sum(packetBytes)"
scalar aodv50AdhocHighMobilityNetwork.host[1].wlan[0].mac packetDropIncorrectlyReceived:count 0
attr interpolationmode none
attr recordingmode count
attr source packetDropReasonIsIncorrectlyReceived(packetDropped)
attr title "packet drop: incorrectly received, count"
scalar aodv50AdhocHighMobilityNetwork.host[1].wlan[0].mac packetDropIncorrectlyReceived:sum(packetBytes) 0
attr interpolationmode none
attr recordingmode sum(packetBytes)
attr source packetDropReasonIsIncorrectlyReceived(packetDropped)
attr title "packet drop: incorrectly received, sum(packetBytes)"
scalar aodv50AdhocHighMobilityNetwork.host[1].wlan[0].mac packetDropInterfaceDown:count 0
attr interpolationmode none
attr recordingmode count
attr source packetDropReasonIsInterfaceDown(packetDropped)
attr title "packet drop: interface down, count"
scalar aodv50AdhocHighMobilityNetwork.host[1].wlan[0].mac packetDropInterfaceDown:sum(packetBytes) 0
attr interpolationmode none
attr recordingmode sum(packetBytes)
attr source packetDropReasonIsInterfaceDown(packetDropped)
attr title "packet drop: interface down, sum(packetBytes)"
scalar aodv50AdhocHighMobilityNetwork.host[1].wlan[0].mac packetDropNotAddressedToUs:count 0
attr interpolationmode none
attr recordingmode count
attr source packetDropReasonIsNotAddressedToUs(packetDropped)
attr title "packet drop: not addressed to us, count"
scalar aodv50AdhocHighMobilityNetwork.host[1].wlan[0].mac packetDropNotAddressedToUs:sum(packetBytes) 0
attr interpolationmode none
attr recordingmode sum(packetBytes)
attr source packetDropReasonIsNotAddressedToUs(packetDropped)
attr title "packet drop: not addressed to us, sum(packetBytes)"
scalar aodv50AdhocHighMobilityNetwork.host[1].wlan[0].mac linkBroken:count 0
attr interpolationmode none
attr recordingmode count
attr source linkBroken
attr title "link break, count"
par aodv50AdhocHighMobilityNetwork.host[1].wlan[0].radio.antenna typename "\"inet.physicallayer.wireless.common.antenna.IsotropicAntenna\""
par aodv50AdhocHighMobilityNetwork.host[1].wlan[0].radio.antenna mobilityModule "\"^.^.^.mobility\""
par aodv50AdhocHighMobilityNetwork.host[1].wlan[0].radio.antenna numAntennas 1
par aodv50AdhocHighMobilityNetwork.host[1].wlan[0].radio.transmitter typename "\"inet.physicallayer.wireless.unitdisk.UnitDiskTransmitter\""
par aodv50AdhocHighMobilityNetwork.host[1].wlan[0].radio.transmitter preambleDuration 0s
attr unit s
par aodv50AdhocHighMobilityNetwork.host[1].wlan[0].radio.transmitter headerLength 96b
attr unit b
par aodv50AdhocHighMobilityNetwork.host[1].wlan[0].radio.transmitter bitrate 1e+07bps
attr unit bps
par aodv50AdhocHighMobilityNetwork.host[1].wlan[0].radio.transmitter communicationRange 50m
attr unit m
par aodv50AdhocHighMobilityNetwork.host[1].wlan[0].radio.transmitter interferenceRange 100m
attr unit m
par aodv50AdhocHighMobilityNetwork.host[1].wlan[0].radio.transmitter detectionRange 100m
attr unit m
par aodv50AdhocHighMobilityNetwork.host[1].wlan[0].radio.receiver typename "\"inet.physicallayer.wireless.unitdisk.UnitDiskReceiver\""
par aodv50AdhocHighMobilityNetwork.host[1].wlan[0].radio.receiver ignoreInterference false
par aodv50AdhocHighMobilityNetwork.host[1].wlan[0].radio typename "\"inet.physicallayer.wireless.unitdisk.UnitDiskRadio\""
par aodv50AdhocHighMobilityNetwork.host[1].wlan[0].radio radioMediumModule "\"radioMedium\""
par aodv50AdhocHighMobilityNetwork.host[1].wlan[0].radio energySourceModule "\"\""
par aodv50AdhocHighMobilityNetwork.host[1].wlan[0].radio initialRadioMode "\"off\""
attr enum off,sleep,receiver,transmitter,transceiver
par aodv50AdhocHighMobilityNetwork.host[1].wlan[0].radio switchingTimes "\"ms 0 0 0 0 0 0 0 0 0 0 0 0 0 0 0 0 0 0 0 0 0 0 0 0 0\""
par aodv50AdhocHighMobilityNetwork.host[1].wlan[0].radio sendRawBytes false
par aodv50AdhocHighMobilityNetwork.host[1].wlan[0].radio separateTransmissionParts false
par aodv50AdhocHighMobilityNetwork.host[1].wlan[0].radio separateReceptionParts false
par aodv50AdhocHighMobilityNetwork.host[1].wlan[0].radio displayCommunicationRange false
par aodv50AdhocHighMobilityNetwork.host[1].wlan[0].radio displayInterferenceRange false
statistic aodv50AdhocHighMobilityNetwork.host[1].wlan[0].radio minSnir:histogram
field count 0
field mean nan
field stddev nan
field min nan
field max nan
field sum 0
field sqrsum 0
attr recordingmode histogram
attr source minimumSnir(packetSentToUpper)
attr title "Min SNIR"
bin	-inf	0
bin	0	0
bin	1	0
statistic aodv50AdhocHighMobilityNetwork.host[1].wlan[0].radio packetErrorRate:histogram
field count 0
field mean nan
field stddev nan
field min nan
field max nan
field sum 0
field sqrsum 0
attr recordingmode histogram
attr source packetErrorRate(packetSentToUpper)
attr title "Packet error rate"
bin	-inf	0
bin	0	0
bin	1	0
statistic aodv50AdhocHighMobilityNetwork.host[1].wlan[0].radio bitErrorRate:histogram
field count 0
field mean nan
field stddev nan
field min nan
field max nan
field sum 0
field sqrsum 0
attr recordingmode histogram
attr source bitErrorRate(packetSentToUpper)
attr title "Bit error rate"
bin	-inf	0
bin	0	0
bin	1	0
statistic aodv50AdhocHighMobilityNetwork.host[1].wlan[0].radio symbolErrorRate:histogram
field count 0
field mean nan
field stddev nan
field min nan
field max nan
field sum 0
field sqrsum 0
attr recordingmode histogram
attr source symbolErrorRate(packetSentToUpper)
attr title "Symbol error rate"
bin	-inf	0
bin	0	0
bin	1	0
scalar aodv50AdhocHighMobilityNetwork.host[1].wlan[0].radio transmissionState:count 143
attr interpolationmode sample-hold
attr recordingmode count
attr source transmissionStateChanged
attr title "Radio transmission state, count"
scalar aodv50AdhocHighMobilityNetwork.host[1].wlan[0].radio receptionState:count 113
attr interpolationmode sample-hold
attr recordingmode count
attr source receptionStateChanged
attr title "Radio reception state, count"
[...]
attr unit s
par aodv50AdhocHighMobilityNetwork.host[49].ipv4.igmp startupQueryCount 2
par aodv50AdhocHighMobilityNetwork.host[49].ipv4.igmp lastMemberQueryInterval 1s
attr unit s
par aodv50AdhocHighMobilityNetwork.host[49].ipv4.igmp lastMemberQueryCount 2
par aodv50AdhocHighMobilityNetwork.host[49].ipv4.igmp unsolicitedReportInterval 10s
attr unit s
par aodv50AdhocHighMobilityNetwork.host[49].ipv4.icmp typename "\"inet.networklayer.ipv4.Icmp\""
par aodv50AdhocHighMobilityNetwork.host[49].ipv4.icmp interfaceTableModule "\"aodv50AdhocHighMobilityNetwork.host[49].interfaceTable\""
par aodv50AdhocHighMobilityNetwork.host[49].ipv4.icmp routingTableModule "\"aodv50AdhocHighMobilityNetwork.host[49].ipv4.routingTable\""
par aodv50AdhocHighMobilityNetwork.host[49].ipv4.icmp crcMode "\"declared\""
attr enum declared,computed
attr mutable ""
par aodv50AdhocHighMobilityNetwork.host[49].ipv4.icmp quoteLength 8B
attr mutable ""
attr unit B
par aodv50AdhocHighMobilityNetwork.host[49].ipv4.mp typename "\"inet.common.MessageDispatcher\""
par aodv50AdhocHighMobilityNetwork.host[49].ipv4.mp displayStringTextFormat "\"processed %p pk (%l)\""
par aodv50AdhocHighMobilityNetwork.host[49].ipv4.mp forwardServiceRegistration true
par aodv50AdhocHighMobilityNetwork.host[49].ipv4.mp forwardProtocolRegistration true
par aodv50AdhocHighMobilityNetwork.host[49].ipv4.ip typename "\"inet.networklayer.ipv4.Ipv4\""
par aodv50AdhocHighMobilityNetwork.host[49].ipv4.ip interfaceTableModule "\"aodv50AdhocHighMobilityNetwork.host[49].interfaceTable\""
par aodv50AdhocHighMobilityNetwork.host[49].ipv4.ip routingTableModule "\"aodv50AdhocHighMobilityNetwork.host[49].ipv4.routingTable\""
par aodv50AdhocHighMobilityNetwork.host[49].ipv4.ip arpModule "\"aodv50AdhocHighMobilityNetwork.host[49].ipv4.arp\""
par aodv50AdhocHighMobilityNetwork.host[49].ipv4.ip icmpModule "\"aodv50AdhocHighMobilityNetwork.host[49].ipv4.icmp\""
par aodv50AdhocHighMobilityNetwork.host[49].ipv4.ip crcMode "\"declared\""
attr enum declared,computed
par aodv50AdhocHighMobilityNetwork.host[49].ipv4.ip timeToLive 32
par aodv50AdhocHighMobilityNetwork.host[49].ipv4.ip multicastTimeToLive 32
par aodv50AdhocHighMobilityNetwork.host[49].ipv4.ip fragmentTimeout 60s
attr unit s
par aodv50AdhocHighMobilityNetwork.host[49].ipv4.ip limitedBroadcast false
par aodv50AdhocHighMobilityNetwork.host[49].ipv4.ip directBroadcastInterfaces "\"\""
scalar aodv50AdhocHighMobilityNetwork.host[49].ipv4.ip packetDropAddressResolutionFailed:count 0
attr interpolationmode none
attr recordingmode count
attr source packetDropReasonIsAddressResolutionFailed(packetDropped)
attr title "packet drop: address resolution failed, count"
scalar aodv50AdhocHighMobilityNetwork.host[49].ipv4.ip packetDropAddressResolutionFailed:sum(packetBytes) 0
attr interpolationmode none
attr recordingmode sum(packetBytes)
attr source packetDropReasonIsAddressResolutionFailed(packetDropped)
attr title "packet drop: address resolution failed, sum(packetBytes)"
scalar aodv50AdhocHighMobilityNetwork.host[49].ipv4.ip packetDropHopLimitReached:count 0
attr interpolationmode none
attr recordingmode count
attr source packetDropReasonIsHopLimitReached(packetDropped)
attr title "packet drop: hop limit reached, count"
scalar aodv50AdhocHighMobilityNetwork.host[49].ipv4.ip packetDropHopLimitReached:sum(packetBytes) 0
attr interpolationmode none
attr recordingmode sum(packetBytes)
attr source packetDropReasonIsHopLimitReached(packetDropped)
attr title "packet drop: hop limit reached, sum(packetBytes)"
scalar aodv50AdhocHighMobilityNetwork.host[49].ipv4.ip packetDropForwardingDisabled:count 0
attr interpolationmode none
attr recordingmode count
attr source packetDropReasonIsForwardingDisabled(packetDropped)
attr title "packet drop: forwarding disabled, count"
scalar aodv50AdhocHighMobilityNetwork.host[49].ipv4.ip packetDropForwardingDisabled:sum(packetBytes) 0
attr interpolationmode none
attr recordingmode sum(packetBytes)
attr source packetDropReasonIsForwardingDisabled(packetDropped)
attr title "packet drop: forwarding disabled, sum(packetBytes)"
scalar aodv50AdhocHighMobilityNetwork.host[49].ipv4.ip packetDropNoInterfaceFound:count 0
attr interpolationmode none
attr recordingmode count
attr source packetDropReasonIsNoInterfaceFound(packetDropped)
attr title "packet drop: no interface found, count"
scalar aodv50AdhocHighMobilityNetwork.host[49].ipv4.ip packetDropNoInterfaceFound:sum(packetBytes) 0
attr interpolationmode none
attr recordingmode sum(packetBytes)
attr source packetDropReasonIsNoInterfaceFound(packetDropped)
attr title "packet drop: no interface found, sum(packetBytes)"
scalar aodv50AdhocHighMobilityNetwork.host[49].ipv4.ip packetDropNoRouteFound:count 0
attr interpolationmode none
attr recordingmode count
attr source packetDropReasonIsNoRouteFound(packetDropped)
attr title "packet drop: no route found, count"
scalar aodv50AdhocHighMobilityNetwork.host[49].ipv4.ip packetDropNoRouteFound:sum(packetBytes) 0
attr interpolationmode none
attr recordingmode sum(packetBytes)
attr source packetDropReasonIsNoRouteFound(packetDropped)
attr title "packet drop: no route found, sum(packetBytes)"
scalar aodv50AdhocHighMobilityNetwork.host[49].ipv4.ip packetDropUndefined:count 0
attr interpolationmode none
attr recordingmode count
attr source packetDropReasonIsUndefined(packetDropped)
attr title "packet drop: undefined, count"
scalar aodv50AdhocHighMobilityNetwork.host[49].ipv4.ip packetDropUndefined:sum(packetBytes) 0
attr interpolationmode none
attr recordingmode sum(packetBytes)
attr source packetDropReasonIsUndefined(packetDropped)
attr title "packet drop: undefined, sum(packetBytes)"
par aodv50AdhocHighMobilityNetwork.host[49].ipv4.arp typename "\"inet.networklayer.arp.ipv4.Arp\""
par aodv50AdhocHighMobilityNetwork.host[49].ipv4.arp interfaceTableModule "\"aodv50AdhocHighMobilityNetwork.host[49].interfaceTable\""
par aodv50AdhocHighMobilityNetwork.host[49].ipv4.arp routingTableModule "\"aodv50AdhocHighMobilityNetwork.host[49].ipv4.routingTable\""
par aodv50AdhocHighMobilityNetwork.host[49].ipv4.arp retryTimeout 1s
attr unit s
par aodv50AdhocHighMobilityNetwork.host[49].ipv4.arp retryCount 3
par aodv50AdhocHighMobilityNetwork.host[49].ipv4.arp cacheTimeout 120s
attr unit s
par aodv50AdhocHighMobilityNetwork.host[49].ipv4.arp proxyArpInterfaces "\"\""
scalar aodv50AdhocHighMobilityNetwork.host[49].ipv4.arp arpReplySent:count 0
attr recordingmode count
attr source arpReplySent
attr title "ARP replies sent, count"
scalar aodv50AdhocHighMobilityNetwork.host[49].ipv4.arp arpReplySent:sum(packetBytes) 0
attr recordingmode sum(packetBytes)
attr source arpReplySent
attr title "ARP replies sent, sum(packetBytes)"
scalar aodv50AdhocHighMobilityNetwork.host[49].ipv4.arp arpRequestSent:count 0
attr recordingmode count
attr source arpRequestSent
attr title "ARP request sent, count"
scalar aodv50AdhocHighMobilityNetwork.host[49].ipv4.arp arpRequestSent:sum(packetBytes) 0
attr recordingmode sum(packetBytes)
attr source arpRequestSent
attr title "ARP request sent, sum(packetBytes)"
scalar aodv50AdhocHighMobilityNetwork.host[49].ipv4.arp arpResolutionFailed:count 0
attr recordingmode count
attr title "ARP failed resolutions, count"
scalar aodv50AdhocHighMobilityNetwork.host[49].ipv4.arp arpResolutionCompleted:count 0
attr recordingmode count
attr title "ARP completed resolutions, count"
scalar aodv50AdhocHighMobilityNetwork.host[49].ipv4.arp arpResolutionInitiated:count 0
attr recordingmode count
attr title "ARP initiated resolutions, count"
par aodv50AdhocHighMobilityNetwork.host[49].ipv4.lp typename "\"inet.common.MessageDispatcher\""
par aodv50AdhocHighMobilityNetwork.host[49].ipv4.lp displayStringTextFormat "\"processed %p pk (%l)\""
par aodv50AdhocHighMobilityNetwork.host[49].ipv4.lp forwardServiceRegistration true
par aodv50AdhocHighMobilityNetwork.host[49].ipv4.lp forwardProtocolRegistration true
par aodv50AdhocHighMobilityNetwork.host[49].ipv4 typename "\"inet.networklayer.ipv4.Ipv4NetworkLayer\""
par aodv50AdhocHighMobilityNetwork.host[49].ipv4 forwarding true
par aodv50AdhocHighMobilityNetwork.host[49].ipv4 multicastForwarding false
par aodv50AdhocHighMobilityNetwork.host[49].ipv4 interfaceTableModule "\"aodv50AdhocHighMobilityNetwork.host[49].interfaceTable\""
par aodv50AdhocHighMobilityNetwork.host[49].ipv4 displayStringTextFormat "\"%i\""
par aodv50AdhocHighMobilityNetwork.host[49].nl typename "\"inet.common.MessageDispatcher\""
par aodv50AdhocHighMobilityNetwork.host[49].nl displayStringTextFormat "\"processed %p pk (%l)\""
par aodv50AdhocHighMobilityNetwork.host[49].nl forwardServiceRegistration true
par aodv50AdhocHighMobilityNetwork.host[49].nl forwardProtocolRegistration true
par aodv50AdhocHighMobilityNetwork.host[49].udp typename "\"inet.transportlayer.udp.Udp\""
par aodv50AdhocHighMobilityNetwork.host[49].udp interfaceTableModule "\"aodv50AdhocHighMobilityNetwork.host[49].interfaceTable\""
par aodv50AdhocHighMobilityNetwork.host[49].udp icmpModule "\"^.ipv4.icmp\""
par aodv50AdhocHighMobilityNetwork.host[49].udp icmpv6Module "\"^.ipv6.icmpv6\""
par aodv50AdhocHighMobilityNetwork.host[49].udp crcMode "\"declared\""
attr enum disabled,declared,computed
par aodv50AdhocHighMobilityNetwork.host[49].udp defaultMulticastLoop true
scalar aodv50AdhocHighMobilityNetwork.host[49].udp packetReceived:count 334
attr interpolationmode none
attr recordingmode count
attr source packetReceived
attr title "packets received, count"
scalar aodv50AdhocHighMobilityNetwork.host[49].udp packetReceived:sum(packetBytes) 10688
attr interpolationmode none
attr recordingmode sum(packetBytes)
attr source packetReceived
attr title "packets received, sum(packetBytes)"
scalar aodv50AdhocHighMobilityNetwork.host[49].udp packetSent:count 202
attr interpolationmode none
attr recordingmode count
attr source packetSent
attr title "packets sent, count"
scalar aodv50AdhocHighMobilityNetwork.host[49].udp packetSent:sum(packetBytes) 6464
attr interpolationmode none
attr recordingmode sum(packetBytes)
attr source packetSent
attr title "packets sent, sum(packetBytes)"
scalar aodv50AdhocHighMobilityNetwork.host[49].udp passedUpPk:count 334
attr interpolationmode none
attr recordingmode count
attr source packetSentToUpper
attr title "packets passed up, count"
scalar aodv50AdhocHighMobilityNetwork.host[49].udp droppedPkWrongPort:count 0
attr interpolationmode none
attr recordingmode count
attr source packetDropReasonIsNoPortFound(packetDropped)
attr title "packets dropped (wrong port), count"
scalar aodv50AdhocHighMobilityNetwork.host[49].udp droppedPkBadChecksum:count 0
attr interpolationmode none
attr recordingmode count
attr source packetDropReasonIsIncorrectlyReceived(packetDropped)
attr title "packets dropped (checksum error), count"
par aodv50AdhocHighMobilityNetwork.host[49].tcp typename "\"inet.transportlayer.tcp.Tcp\""
par aodv50AdhocHighMobilityNetwork.host[49].tcp crcMode "\"declared\""
attr enum declared,computed
par aodv50AdhocHighMobilityNetwork.host[49].tcp advertisedWindow 7504
par aodv50AdhocHighMobilityNetwork.host[49].tcp delayedAcksEnabled false
par aodv50AdhocHighMobilityNetwork.host[49].tcp nagleEnabled true
par aodv50AdhocHighMobilityNetwork.host[49].tcp limitedTransmitEnabled false
par aodv50AdhocHighMobilityNetwork.host[49].tcp increasedIWEnabled false
par aodv50AdhocHighMobilityNetwork.host[49].tcp sackSupport false
par aodv50AdhocHighMobilityNetwork.host[49].tcp windowScalingSupport false
par aodv50AdhocHighMobilityNetwork.host[49].tcp windowScalingFactor -1
par aodv50AdhocHighMobilityNetwork.host[49].tcp timestampSupport false
par aodv50AdhocHighMobilityNetwork.host[49].tcp mss 536
par aodv50AdhocHighMobilityNetwork.host[49].tcp msl 120s
attr unit s
par aodv50AdhocHighMobilityNetwork.host[49].tcp tcpAlgorithmClass "\"TcpReno\""
par aodv50AdhocHighMobilityNetwork.host[49].tcp useDataNotification false
par aodv50AdhocHighMobilityNetwork.host[49].tcp dupthresh 3
par aodv50AdhocHighMobilityNetwork.host[49].tcp initialSsthresh 4294967295
par aodv50AdhocHighMobilityNetwork.host[49].tcp stopOperationExtraTime 0s
attr unit s
par aodv50AdhocHighMobilityNetwork.host[49].tcp stopOperationTimeout 2s
attr unit s
par aodv50AdhocHighMobilityNetwork.host[49].tcp ecnWillingness false
par aodv50AdhocHighMobilityNetwork.host[49].tcp dctcpGamma 0.0625
par aodv50AdhocHighMobilityNetwork.host[49].tn typename "\"inet.common.MessageDispatcher\""
par aodv50AdhocHighMobilityNetwork.host[49].tn displayStringTextFormat "\"processed %p pk (%l)\""
par aodv50AdhocHighMobilityNetwork.host[49].tn forwardServiceRegistration true
par aodv50AdhocHighMobilityNetwork.host[49].tn forwardProtocolRegistration true
par aodv50AdhocHighMobilityNetwork.host[49].app[0] typename "\"inet.applications.pingapp.PingApp\""
par aodv50AdhocHighMobilityNetwork.host[49].app[0] destAddr "\"host[0,24](ipv4)\""
par aodv50AdhocHighMobilityNetwork.host[49].app[0] srcAddr "\"\""
par aodv50AdhocHighMobilityNetwork.host[49].app[0] packetSize 56B
attr unit B
par aodv50AdhocHighMobilityNetwork.host[49].app[0] sendInterval "uniform(0.1s, 0.1s)"
attr unit s
par aodv50AdhocHighMobilityNetwork.host[49].app[0] hopLimit -1
par aodv50AdhocHighMobilityNetwork.host[49].app[0] count -1
par aodv50AdhocHighMobilityNetwork.host[49].app[0] startTime 1s
attr unit s
par aodv50AdhocHighMobilityNetwork.host[49].app[0] stopTime -1s
attr unit s
par aodv50AdhocHighMobilityNetwork.host[49].app[0] sleepDuration 0s
attr unit s
par aodv50AdhocHighMobilityNetwork.host[49].app[0] continuous false
par aodv50AdhocHighMobilityNetwork.host[49].app[0] printPing true
par aodv50AdhocHighMobilityNetwork.host[49].app[0] crcMode "\"declared\""
attr enum declared,computed
par aodv50AdhocHighMobilityNetwork.host[49].app[0] networkProtocol "\"\""
par aodv50AdhocHighMobilityNetwork.host[49].app[0] stopOperationExtraTime -1s
attr unit s
par aodv50AdhocHighMobilityNetwork.host[49].app[0] stopOperationTimeout 2s
attr unit s
scalar aodv50AdhocHighMobilityNetwork.host[49].app[0] "Pings sent" 1191
scalar aodv50AdhocHighMobilityNetwork.host[49].app[0] "ping loss rate (%)" 100
scalar aodv50AdhocHighMobilityNetwork.host[49].app[0] "ping out-of-order rate (%)" 0
scalar aodv50AdhocHighMobilityNetwork.host[49].app[0] pingRxSeq:count 0
attr interpolationmode none
attr recordingmode count
attr title "ping rx seq, count"
scalar aodv50AdhocHighMobilityNetwork.host[49].app[0] pingTxSeq:count 1191
attr interpolationmode none
attr recordingmode count
attr title "ping tx seq, count"
scalar aodv50AdhocHighMobilityNetwork.host[49].app[0] numOutOfOrderArrivals:last nan
attr interpolationmode none
attr recordingmode last
attr title "ping out-of-order arrivals, last"
scalar aodv50AdhocHighMobilityNetwork.host[49].app[0] numLost:last nan
attr interpolationmode none
attr recordingmode last
attr title "pings lost, last"
statistic aodv50AdhocHighMobilityNetwork.host[49].app[0] rtt:histogram
field count 0
field mean nan
field stddev nan
field min nan
field max nan
field sum 0
field sqrsum 0
attr interpolationmode none
attr recordingmode histogram
attr title "ping round-trip time"
attr unit s
bin	-inf	0
bin	0	0
bin	1	0
par aodv50AdhocHighMobilityNetwork.host[49].at typename "\"inet.common.MessageDispatcher\""
par aodv50AdhocHighMobilityNetwork.host[49].at displayStringTextFormat "\"processed %p pk (%l)\""
par aodv50AdhocHighMobilityNetwork.host[49].at forwardServiceRegistration true
par aodv50AdhocHighMobilityNetwork.host[49].at forwardProtocolRegistration true
par aodv50AdhocHighMobilityNetwork.host[49].aodv typename "\"inet.routing.aodv.Aodv\""
par aodv50AdhocHighMobilityNetwork.host[49].aodv routingTableModule "\"^.ipv4.routingTable\""
par aodv50AdhocHighMobilityNetwork.host[49].aodv interfaceTableModule "\"aodv50AdhocHighMobilityNetwork.host[49].interfaceTable\""
par aodv50AdhocHighMobilityNetwork.host[49].aodv networkProtocolModule "\"^.ipv4.ip\""
par aodv50AdhocHighMobilityNetwork.host[49].aodv askGratuitousRREP false
par aodv50AdhocHighMobilityNetwork.host[49].aodv useHelloMessages false
par aodv50AdhocHighMobilityNetwork.host[49].aodv useLocalRepair false
par aodv50AdhocHighMobilityNetwork.host[49].aodv destinationOnlyFlag false
par aodv50AdhocHighMobilityNetwork.host[49].aodv udpPort 654
par aodv50AdhocHighMobilityNetwork.host[49].aodv interface "\"wlan0\""
par aodv50AdhocHighMobilityNetwork.host[49].aodv maxPeriodicJitter 0.25s
attr unit s
par aodv50AdhocHighMobilityNetwork.host[49].aodv periodicJitter "uniform(0s, maxPeriodicJitter)"
attr unit s
par aodv50AdhocHighMobilityNetwork.host[49].aodv maxJitter 0.005s
attr unit s
par aodv50AdhocHighMobilityNetwork.host[49].aodv jitter "uniform(0ms, maxJitter)"
attr unit s
par aodv50AdhocHighMobilityNetwork.host[49].aodv helloInterval 1s
attr unit s
par aodv50AdhocHighMobilityNetwork.host[49].aodv allowedHelloLoss 2
par aodv50AdhocHighMobilityNetwork.host[49].aodv activeRouteTimeout 3s
attr unit s
par aodv50AdhocHighMobilityNetwork.host[49].aodv netDiameter 35
par aodv50AdhocHighMobilityNetwork.host[49].aodv nodeTraversalTime 0.04s
attr unit s
par aodv50AdhocHighMobilityNetwork.host[49].aodv rerrRatelimit 10
par aodv50AdhocHighMobilityNetwork.host[49].aodv rreqRetries 2
par aodv50AdhocHighMobilityNetwork.host[49].aodv rreqRatelimit 10
par aodv50AdhocHighMobilityNetwork.host[49].aodv timeoutBuffer 2
par aodv50AdhocHighMobilityNetwork.host[49].aodv ttlStart 2
par aodv50AdhocHighMobilityNetwork.host[49].aodv ttlIncrement 2
par aodv50AdhocHighMobilityNetwork.host[49].aodv ttlThreshold 7
par aodv50AdhocHighMobilityNetwork.host[49].aodv localAddTTL 2
par aodv50AdhocHighMobilityNetwork.host[49].aodv myRouteTimeout 6s
attr unit s
par aodv50AdhocHighMobilityNetwork.host[49].aodv deletePeriod 15s
attr unit s
par aodv50AdhocHighMobilityNetwork.host[49].aodv blacklistTimeout 5.6s
attr unit s
par aodv50AdhocHighMobilityNetwork.host[49].aodv netTraversalTime 2.8s
attr unit s
par aodv50AdhocHighMobilityNetwork.host[49].aodv nextHopWait 0.05s
attr unit s
par aodv50AdhocHighMobilityNetwork.host[49].aodv pathDiscoveryTime 5.6s
attr unit s
par aodv50AdhocHighMobilityNetwork.host[49] typename "\"inet.node.aodv.AodvRouter\""
par aodv50AdhocHighMobilityNetwork.host[49] hasStatus true
par aodv50AdhocHighMobilityNetwork.host[49] osgModel "\"\""
par aodv50AdhocHighMobilityNetwork.host[49] osgModelColor "\"\""
par aodv50AdhocHighMobilityNetwork.host[49] canvasImage "\"\""
par aodv50AdhocHighMobilityNetwork.host[49] canvasImageColor "\"\""
par aodv50AdhocHighMobilityNetwork.host[49] recordPcap false
par aodv50AdhocHighMobilityNetwork.host[49] numPcapRecorders 0
par aodv50AdhocHighMobilityNetwork.host[49] numLoInterfaces 1
par aodv50AdhocHighMobilityNetwork.host[49] numWlanInterfaces 1
par aodv50AdhocHighMobilityNetwork.host[49] numEthInterfaces 0
par aodv50AdhocHighMobilityNetwork.host[49] numPppInterfaces 0
par aodv50AdhocHighMobilityNetwork.host[49] numTunInterfaces 0
par aodv50AdhocHighMobilityNetwork.host[49] numVirtInterfaces 0
par aodv50AdhocHighMobilityNetwork.host[49] fcsMode "\"declared\""
attr enum declared,computed
par aodv50AdhocHighMobilityNetwork.host[49] hasIpv4 true
par aodv50AdhocHighMobilityNetwork.host[49] hasIpv6 false
par aodv50AdhocHighMobilityNetwork.host[49] hasGn false
par aodv50AdhocHighMobilityNetwork.host[49] forwarding true
par aodv50AdhocHighMobilityNetwork.host[49] multicastForwarding false
par aodv50AdhocHighMobilityNetwork.host[49] hasUdp true
par aodv50AdhocHighMobilityNetwork.host[49] hasTcp true
par aodv50AdhocHighMobilityNetwork.host[49] hasSctp false
par aodv50AdhocHighMobilityNetwork.host[49] numApps 1
par aodv50AdhocHighMobilityNetwork typename "\"aodv50.aodv50AdhocHighMobilityNetwork\""

