version 3
run HighMobility-0-20250220-04:24:39-4264
attr configname HighMobility
attr datetime 20250220-04:24:39
attr datetimef 20250220-042439
attr experiment HighMobility
attr inifile omnetpp.ini
attr iterationvars ""
attr iterationvarsd ""
attr iterationvarsf ""
attr measurement ""
attr network dsdv25AdhocHighMobilityNetwork
attr processid 4264
attr repetition 0
attr replication #0
attr resultdir results
attr runnumber 0
attr seedset 0
config image-path ../../inet/images
config description "Cenário de alta mobilidade"
config *.numHosts 25
config **.host[*].mobility.typename MassMobility
config **.host[*].mobility.speed "normal(5mps, 5mps)"
config **.host[*].mobility.changeInterval "uniform(1s, 1s)"
config **.host[*].mobility.angleDelta "uniform(0deg, 360deg)"
config *.host[*].numApps 1
config *.host[*].app[0].typename PingApp
config *.host[*].app[0].startTime uniform(1s,1s)
config *.host[*].app[0].sendInterval "uniform(0.1s, 0.1s)"
config *.host[*].app[0].packetLength 1024B
config *.host[*].app[0].destAddr "\"host[0,24](ipv4)\""
config *.host[*].app[0].printPing true
config **.recordEventLog true
config **.routingTableRecorder.record true
config **.networkLayer.packetDeliveryRatio.recordScalar true
config **.networkLayer.endToEndDelay.recordScalar true
config *.configurator.config "xml(\"<config> \\    <interface hosts='host[*]' address='10.0.0.1' netmask='255.255.255.0'/> \\</config>\")"
config network dsdv25AdhocHighMobilityNetwork
config num-rngs 3
config **.mobility.rng-0 1
config **.wlan[*].mac.rng-0 2
config sim-time-limit 120s
config **.wlan[*].typename AckingWirelessInterface
config **.wlan[*].bitrate 10Mbps
config **.wlan[*].mac.headerLength 23B
config **.wlan[*].radio.typename UnitDiskRadio
config **.wlan[*].radio.transmitter.headerLength 96b
config **.wlan[*].radio.transmitter.communicationRange 50m
config **.wlan[*].radio.transmitter.interferenceRange 100m
config **.wlan[*].radio.transmitter.detectionRange 100m
config **.wlan[*].radio.receiver.ignoreInterference false
config **.mobility.constraintAreaMinX 0m
config **.mobility.constraintAreaMinY 0m
config **.mobility.constraintAreaMaxX 600m
config **.mobility.constraintAreaMaxY 600m
config **.mobility.constraintAreaMinZ 0m
config **.mobility.constraintAreaMaxZ 0m
config **.hasStatus true

par dsdv25AdhocHighMobilityNetwork.radioMedium.propagation typename "\"inet.physicallayer.wireless.common.propagation.ConstantSpeedPropagation\""
par dsdv25AdhocHighMobilityNetwork.radioMedium.propagation propagationSpeed 2.99792e+08mps
attr unit mps
par dsdv25AdhocHighMobilityNetwork.radioMedium.propagation ignoreMovementDuringTransmission true
par dsdv25AdhocHighMobilityNetwork.radioMedium.propagation ignoreMovementDuringPropagation true
par dsdv25AdhocHighMobilityNetwork.radioMedium.propagation ignoreMovementDuringReception true
scalar dsdv25AdhocHighMobilityNetwork.radioMedium.propagation "Arrival computation count" 57432
par dsdv25AdhocHighMobilityNetwork.radioMedium.analogModel typename "\"inet.physicallayer.wireless.unitdisk.UnitDiskAnalogModel\""
par dsdv25AdhocHighMobilityNetwork.radioMedium.pathLoss typename "\"inet.physicallayer.wireless.common.pathloss.FreeSpacePathLoss\""
par dsdv25AdhocHighMobilityNetwork.radioMedium.pathLoss alpha 2
par dsdv25AdhocHighMobilityNetwork.radioMedium.pathLoss systemLoss 0dB
attr unit dB
par dsdv25AdhocHighMobilityNetwork.radioMedium.mediumLimitCache typename "\"inet.physicallayer.wireless.common.medium.MediumLimitCache\""
par dsdv25AdhocHighMobilityNetwork.radioMedium.mediumLimitCache centerFrequency "nan Hz"
attr unit Hz
par dsdv25AdhocHighMobilityNetwork.radioMedium.mediumLimitCache maxSpeed "nan mps"
attr unit mps
par dsdv25AdhocHighMobilityNetwork.radioMedium.mediumLimitCache maxTransmissionPower "nan W"
attr unit W
par dsdv25AdhocHighMobilityNetwork.radioMedium.mediumLimitCache minInterferencePower "nan dBm"
attr unit dBm
par dsdv25AdhocHighMobilityNetwork.radioMedium.mediumLimitCache minReceptionPower "nan dBm"
attr unit dBm
par dsdv25AdhocHighMobilityNetwork.radioMedium.mediumLimitCache maxAntennaGain 0dB
attr unit dB
par dsdv25AdhocHighMobilityNetwork.radioMedium.mediumLimitCache minInterferenceTime 1e-12s
attr unit s
par dsdv25AdhocHighMobilityNetwork.radioMedium.mediumLimitCache maxTransmissionDuration 0.01s
attr unit s
par dsdv25AdhocHighMobilityNetwork.radioMedium.mediumLimitCache maxCommunicationRange "nan m"
attr unit m
par dsdv25AdhocHighMobilityNetwork.radioMedium.mediumLimitCache maxInterferenceRange "nan m"
attr unit m
par dsdv25AdhocHighMobilityNetwork.radioMedium.communicationCache typename "\"inet.physicallayer.wireless.common.communicationcache.VectorCommunicationCache\""
par dsdv25AdhocHighMobilityNetwork.radioMedium typename "\"inet.physicallayer.wireless.unitdisk.UnitDiskRadioMedium\""
par dsdv25AdhocHighMobilityNetwork.radioMedium physicalEnvironmentModule "\"physicalEnvironment\""
par dsdv25AdhocHighMobilityNetwork.radioMedium signalAnalogRepresentation "\"unitDisk\""
attr enum unitDisk,scalar,dimensional
par dsdv25AdhocHighMobilityNetwork.radioMedium rangeFilter "\"\""
par dsdv25AdhocHighMobilityNetwork.radioMedium radioModeFilter false
par dsdv25AdhocHighMobilityNetwork.radioMedium listeningFilter false
par dsdv25AdhocHighMobilityNetwork.radioMedium macAddressFilter false
par dsdv25AdhocHighMobilityNetwork.radioMedium recordTransmissionLog false
par dsdv25AdhocHighMobilityNetwork.radioMedium recordReceptionLog false
scalar dsdv25AdhocHighMobilityNetwork.radioMedium "transmission count" 2393
scalar dsdv25AdhocHighMobilityNetwork.radioMedium "signal send count" 57432
scalar dsdv25AdhocHighMobilityNetwork.radioMedium "reception computation count" 57408
scalar dsdv25AdhocHighMobilityNetwork.radioMedium "interference computation count" 176900
scalar dsdv25AdhocHighMobilityNetwork.radioMedium "reception decision computation count" 2174
scalar dsdv25AdhocHighMobilityNetwork.radioMedium "listening decision computation count" 117318
scalar dsdv25AdhocHighMobilityNetwork.radioMedium "reception cache hit" 76.227980819399
attr unit %
scalar dsdv25AdhocHighMobilityNetwork.radioMedium "interference cache hit" 66.666666666667
attr unit %
scalar dsdv25AdhocHighMobilityNetwork.radioMedium "noise cache hit" 0
attr unit %
scalar dsdv25AdhocHighMobilityNetwork.radioMedium "snir cache hit" 50
attr unit %
scalar dsdv25AdhocHighMobilityNetwork.radioMedium "reception decision cache hit" 50
attr unit %
scalar dsdv25AdhocHighMobilityNetwork.radioMedium "reception result cache hit" 0
attr unit %
par dsdv25AdhocHighMobilityNetwork.configurator typename "\"inet.networklayer.configurator.ipv4.Ipv4NetworkConfigurator\""
par dsdv25AdhocHighMobilityNetwork.configurator minLinkWeight 0.001
par dsdv25AdhocHighMobilityNetwork.configurator configureIsolatedNetworksSeparatly false
par dsdv25AdhocHighMobilityNetwork.configurator config "<config>...</config> at content:1"
par dsdv25AdhocHighMobilityNetwork.configurator assignAddresses true
par dsdv25AdhocHighMobilityNetwork.configurator assignUniqueAddresses true
par dsdv25AdhocHighMobilityNetwork.configurator assignDisjunctSubnetAddresses true
par dsdv25AdhocHighMobilityNetwork.configurator addStaticRoutes false
par dsdv25AdhocHighMobilityNetwork.configurator addDefaultRoutes false
par dsdv25AdhocHighMobilityNetwork.configurator addSubnetRoutes false
par dsdv25AdhocHighMobilityNetwork.configurator addDirectRoutes true
par dsdv25AdhocHighMobilityNetwork.configurator optimizeRoutes true
par dsdv25AdhocHighMobilityNetwork.configurator dumpTopology false
par dsdv25AdhocHighMobilityNetwork.configurator dumpLinks false
par dsdv25AdhocHighMobilityNetwork.configurator dumpAddresses false
par dsdv25AdhocHighMobilityNetwork.configurator dumpRoutes false
par dsdv25AdhocHighMobilityNetwork.configurator dumpConfig "\"\""
par dsdv25AdhocHighMobilityNetwork.routingTableRecorder typename "\"inet.networklayer.ipv4.RoutingTableRecorder\""
par dsdv25AdhocHighMobilityNetwork.routingTableRecorder enabled true
par dsdv25AdhocHighMobilityNetwork.scenarioManager typename "\"inet.common.scenario.ScenarioManager\""
par dsdv25AdhocHighMobilityNetwork.scenarioManager script "<scenario/> at content:1"
par dsdv25AdhocHighMobilityNetwork.host[0].radioIn[0].channel typename "\"ned.IdealChannel\""
par dsdv25AdhocHighMobilityNetwork.host[0].status typename "\"inet.common.lifecycle.NodeStatus\""
par dsdv25AdhocHighMobilityNetwork.host[0].status initialStatus "\"UP\""
par dsdv25AdhocHighMobilityNetwork.host[0].mobility typename "\"inet.mobility.single.MassMobility\""
par dsdv25AdhocHighMobilityNetwork.host[0].mobility subjectModule "\"^\""
par dsdv25AdhocHighMobilityNetwork.host[0].mobility coordinateSystemModule "\"\""
par dsdv25AdhocHighMobilityNetwork.host[0].mobility displayStringTextFormat "\"p: %p\\nv: %v\""
attr mutable ""
par dsdv25AdhocHighMobilityNetwork.host[0].mobility updateDisplayString true
par dsdv25AdhocHighMobilityNetwork.host[0].mobility constraintAreaMinX 0m
attr unit m
par dsdv25AdhocHighMobilityNetwork.host[0].mobility constraintAreaMinY 0m
attr unit m
par dsdv25AdhocHighMobilityNetwork.host[0].mobility constraintAreaMinZ 0m
attr unit m
par dsdv25AdhocHighMobilityNetwork.host[0].mobility constraintAreaMaxX 600m
attr unit m
par dsdv25AdhocHighMobilityNetwork.host[0].mobility constraintAreaMaxY 600m
attr unit m
par dsdv25AdhocHighMobilityNetwork.host[0].mobility constraintAreaMaxZ 0m
attr unit m
par dsdv25AdhocHighMobilityNetwork.host[0].mobility updateInterval 0.1s
attr unit s
par dsdv25AdhocHighMobilityNetwork.host[0].mobility faceForward true
par dsdv25AdhocHighMobilityNetwork.host[0].mobility initialX 250.213m
attr unit m
par dsdv25AdhocHighMobilityNetwork.host[0].mobility initialY 598.311m
attr unit m
par dsdv25AdhocHighMobilityNetwork.host[0].mobility initialZ 0m
attr unit m
par dsdv25AdhocHighMobilityNetwork.host[0].mobility initialMovementHeading 335.721deg
attr unit deg
par dsdv25AdhocHighMobilityNetwork.host[0].mobility initialMovementElevation 0deg
attr unit deg
par dsdv25AdhocHighMobilityNetwork.host[0].mobility initFromDisplayString true
par dsdv25AdhocHighMobilityNetwork.host[0].mobility changeInterval "uniform(1s, 1s)"
attr unit s
par dsdv25AdhocHighMobilityNetwork.host[0].mobility angleDelta "uniform(0deg, 360deg)"
attr unit deg
par dsdv25AdhocHighMobilityNetwork.host[0].mobility rotationAxisAngle 0deg
attr unit deg
par dsdv25AdhocHighMobilityNetwork.host[0].mobility speed "normal(5mps, 5mps)"
attr mutable ""
attr unit mps
par dsdv25AdhocHighMobilityNetwork.host[0].interfaceTable typename "\"inet.networklayer.common.InterfaceTable\""
par dsdv25AdhocHighMobilityNetwork.host[0].interfaceTable displayAddresses false
par dsdv25AdhocHighMobilityNetwork.host[0].cb typename "\"inet.common.MessageDispatcher\""
par dsdv25AdhocHighMobilityNetwork.host[0].cb displayStringTextFormat "\"processed %p pk (%l)\""
par dsdv25AdhocHighMobilityNetwork.host[0].cb forwardServiceRegistration true
par dsdv25AdhocHighMobilityNetwork.host[0].cb forwardProtocolRegistration true
par dsdv25AdhocHighMobilityNetwork.host[0].bl typename "\"inet.common.MessageDispatcher\""
par dsdv25AdhocHighMobilityNetwork.host[0].bl displayStringTextFormat "\"processed %p pk (%l)\""
par dsdv25AdhocHighMobilityNetwork.host[0].bl forwardServiceRegistration true
par dsdv25AdhocHighMobilityNetwork.host[0].bl forwardProtocolRegistration true
par dsdv25AdhocHighMobilityNetwork.host[0].li typename "\"inet.common.MessageDispatcher\""
par dsdv25AdhocHighMobilityNetwork.host[0].li displayStringTextFormat "\"processed %p pk (%l)\""
par dsdv25AdhocHighMobilityNetwork.host[0].li forwardServiceRegistration true
par dsdv25AdhocHighMobilityNetwork.host[0].li forwardProtocolRegistration true
par dsdv25AdhocHighMobilityNetwork.host[0].lo[0].upperLayerIn.channel typename "\"ned.IdealChannel\""
par dsdv25AdhocHighMobilityNetwork.host[0].lo[0].lo.upperLayerOut.channel typename "\"ned.IdealChannel\""
par dsdv25AdhocHighMobilityNetwork.host[0].lo[0].lo typename "\"inet.linklayer.loopback.Loopback\""
par dsdv25AdhocHighMobilityNetwork.host[0].lo[0].lo interfaceTableModule "\"dsdv25AdhocHighMobilityNetwork.host[0].interfaceTable\""
par dsdv25AdhocHighMobilityNetwork.host[0].lo[0].lo mtu 4470B
attr unit B
scalar dsdv25AdhocHighMobilityNetwork.host[0].lo[0].lo rcvdPkFromHl:count 2446
attr interpolationmode none
attr recordingmode count
attr source packetReceivedFromUpper
attr title "packets received from higher layer, count"
scalar dsdv25AdhocHighMobilityNetwork.host[0].lo[0].lo rcvdPkFromHl:sum(packetBytes) 203672
attr interpolationmode none
attr recordingmode sum(packetBytes)
attr source packetReceivedFromUpper
attr title "packets received from higher layer, sum(packetBytes)"
scalar dsdv25AdhocHighMobilityNetwork.host[0].lo[0].lo passedUpPk:count 2446
attr interpolationmode none
attr recordingmode count
attr source packetSentToUpper
attr title "packets passed to higher layer, count"
scalar dsdv25AdhocHighMobilityNetwork.host[0].lo[0].lo passedUpPk:sum(packetBytes) 203672
attr interpolationmode none
attr recordingmode sum(packetBytes)
attr source packetSentToUpper
attr title "packets passed to higher layer, sum(packetBytes)"
par dsdv25AdhocHighMobilityNetwork.host[0].lo[0] typename "\"inet.linklayer.loopback.LoopbackInterface\""
par dsdv25AdhocHighMobilityNetwork.host[0].lo[0] displayStringTextFormat "\"%a (%i)\\n%m\""
par dsdv25AdhocHighMobilityNetwork.host[0].lo[0] recordPcap false
par dsdv25AdhocHighMobilityNetwork.host[0].lo[0] numPcapRecorders 0
par dsdv25AdhocHighMobilityNetwork.host[0].lo[0] interfaceTableModule "\"dsdv25AdhocHighMobilityNetwork.host[0].interfaceTable\""
scalar dsdv25AdhocHighMobilityNetwork.host[0].lo[0] packetDropInterfaceDown:count 0
attr interpolationmode none
attr recordingmode count
attr source packetDropReasonIsInterfaceDown(packetDropped)
attr title "packet drops: interface down, count"
scalar dsdv25AdhocHighMobilityNetwork.host[0].lo[0] packetDropInterfaceDown:sum(packetBytes) 0
attr interpolationmode none
attr recordingmode sum(packetBytes)
attr source packetDropReasonIsInterfaceDown(packetDropped)
attr title "packet drops: interface down, sum(packetBytes)"
scalar dsdv25AdhocHighMobilityNetwork.host[0].lo[0] packetDropNoCarrier:count 0
attr interpolationmode none
attr recordingmode count
attr source packetDropReasonIsNoCarrier(packetDropped)
attr title "packet drops: no carrier, count"
scalar dsdv25AdhocHighMobilityNetwork.host[0].lo[0] packetDropNoCarrier:sum(packetBytes) 0
attr interpolationmode none
attr recordingmode sum(packetBytes)
attr source packetDropReasonIsNoCarrier(packetDropped)
attr title "packet drops: no carrier, sum(packetBytes)"
par dsdv25AdhocHighMobilityNetwork.host[0].wlan[0].upperLayerIn.channel typename "\"ned.IdealChannel\""
par dsdv25AdhocHighMobilityNetwork.host[0].wlan[0].radioIn.channel typename "\"ned.IdealChannel\""
par dsdv25AdhocHighMobilityNetwork.host[0].wlan[0].mac.upperLayerOut.channel typename "\"ned.IdealChannel\""
par dsdv25AdhocHighMobilityNetwork.host[0].wlan[0].queue typename "\"inet.queueing.queue.DropTailQueue\""
par dsdv25AdhocHighMobilityNetwork.host[0].wlan[0].queue displayStringTextFormat "\"contains %p pk (%l) pushed %u\\npulled %o removed %r dropped %d\""
par dsdv25AdhocHighMobilityNetwork.host[0].wlan[0].queue packetCapacity 100
par dsdv25AdhocHighMobilityNetwork.host[0].wlan[0].queue dataCapacity -1b
attr unit b
par dsdv25AdhocHighMobilityNetwork.host[0].wlan[0].queue dropperClass "\"inet::queueing::PacketAtCollectionEndDropper\""
par dsdv25AdhocHighMobilityNetwork.host[0].wlan[0].queue comparatorClass "\"\""
par dsdv25AdhocHighMobilityNetwork.host[0].wlan[0].queue bufferModule "\"\""
scalar dsdv25AdhocHighMobilityNetwork.host[0].wlan[0].queue queueLength:last 0
attr autoWarmupFilter false
attr interpolationmode sample-hold
attr recordingmode last
attr source "warmup(atomic(constant0(packetPushEnded) + count(packetPushStarted) - count(packetPulled) - count(packetRemoved) - count(packetDropped)))"
attr title "queue length, last"
attr unit pk
scalar dsdv25AdhocHighMobilityNetwork.host[0].wlan[0].queue queueLength:max 0
attr autoWarmupFilter false
attr interpolationmode sample-hold
attr recordingmode max
attr source "warmup(atomic(constant0(packetPushEnded) + count(packetPushStarted) - count(packetPulled) - count(packetRemoved) - count(packetDropped)))"
attr title "queue length, max"
attr unit pk
scalar dsdv25AdhocHighMobilityNetwork.host[0].wlan[0].queue queueLength:timeavg 0
attr autoWarmupFilter false
attr interpolationmode sample-hold
attr recordingmode timeavg
attr source "warmup(atomic(constant0(packetPushEnded) + count(packetPushStarted) - count(packetPulled) - count(packetRemoved) - count(packetDropped)))"
attr title "queue length, timeavg"
attr unit pk
scalar dsdv25AdhocHighMobilityNetwork.host[0].wlan[0].queue queueBitLength:last 0
attr autoWarmupFilter false
attr interpolationmode sample-hold
attr recordingmode last
attr source "warmup(atomic(constant0(packetPushEnded) + sum(packetLength(packetPushStarted)) - sum(packetLength(packetPulled)) - sum(packetLength(packetRemoved)) - sum(packetLength(packetDropped))))"
attr title "queue bit length, last"
attr unit b
scalar dsdv25AdhocHighMobilityNetwork.host[0].wlan[0].queue queueBitLength:max 0
attr autoWarmupFilter false
attr interpolationmode sample-hold
attr recordingmode max
attr source "warmup(atomic(constant0(packetPushEnded) + sum(packetLength(packetPushStarted)) - sum(packetLength(packetPulled)) - sum(packetLength(packetRemoved)) - sum(packetLength(packetDropped))))"
attr title "queue bit length, max"
attr unit b
scalar dsdv25AdhocHighMobilityNetwork.host[0].wlan[0].queue queueBitLength:timeavg 0
attr autoWarmupFilter false
attr interpolationmode sample-hold
attr recordingmode timeavg
attr source "warmup(atomic(constant0(packetPushEnded) + sum(packetLength(packetPushStarted)) - sum(packetLength(packetPulled)) - sum(packetLength(packetRemoved)) - sum(packetLength(packetDropped))))"
attr title "queue bit length, timeavg"
attr unit b
statistic dsdv25AdhocHighMobilityNetwork.host[0].wlan[0].queue queueingTime:histogram
field count 668
field mean 0
field stddev 0
field min 0
field max 0
field sum 0
field sqrsum 0
attr interpolationmode none
attr recordingmode histogram
attr source queueingTime(packetPulled)
attr title "queueing times"
attr unit s
bin	-inf	0
bin	-0.5	0
bin	-0.48	0
bin	-0.46	0
bin	-0.44	0
bin	-0.42	0
bin	-0.4	0
bin	-0.38	0
bin	-0.36	0
bin	-0.34	0
bin	-0.32	0
bin	-0.3	0
bin	-0.28	0
bin	-0.26	0
bin	-0.24	0
bin	-0.22	0
bin	-0.2	0
bin	-0.18	0
bin	-0.16	0
bin	-0.14	0
bin	-0.12	0
bin	-0.1	0
bin	-0.08	0
bin	-0.06	0
bin	-0.04	0
bin	-0.02	0
bin	0	668
bin	0.02	0
bin	0.04	0
bin	0.06	0
bin	0.08	0
bin	0.1	0
bin	0.12	0
bin	0.14	0
bin	0.16	0
bin	0.18	0
bin	0.2	0
bin	0.22	0
bin	0.24	0
bin	0.26	0
bin	0.28	0
bin	0.3	0
bin	0.32	0
bin	0.34	0
bin	0.36	0
bin	0.38	0
bin	0.4	0
bin	0.42	0
bin	0.44	0
bin	0.46	0
bin	0.48	0
bin	0.5	0
scalar dsdv25AdhocHighMobilityNetwork.host[0].wlan[0].queue outgoingPackets:count 668
attr recordingmode count
attr source packetPulled
attr title "outgoing packets, count"
attr unit pk
scalar dsdv25AdhocHighMobilityNetwork.host[0].wlan[0].queue outgoingPacketLengths:sum 433856
attr interpolationmode none
attr recordingmode sum
attr source packetLength(packetPulled)
attr title "outgoing packet lengths, sum"
attr unit b
statistic dsdv25AdhocHighMobilityNetwork.host[0].wlan[0].queue outgoingPacketLengths:histogram
field count 668
field mean 649.48502994012
field stddev 90.520789152629
field min 224
field max 672
field sum 433856
field sqrsum 287248384
attr interpolationmode none
attr recordingmode histogram
attr source packetLength(packetPulled)
attr title "outgoing packet lengths"
attr unit b
bin	-inf	0
bin	110	0
bin	120	0
bin	130	0
bin	140	0
bin	150	0
bin	160	0
bin	170	0
bin	180	0
bin	190	0
bin	200	0
bin	210	0
bin	220	1
bin	230	0
bin	240	0
bin	250	0
bin	260	0
bin	270	0
bin	280	38
bin	290	0
bin	300	0
bin	310	0
bin	320	0
bin	330	0
bin	340	0
bin	350	0
bin	360	0
bin	370	0
bin	380	0
bin	390	0
bin	400	0
bin	410	0
bin	420	0
bin	430	0
bin	440	0
bin	450	0
bin	460	0
bin	470	0
bin	480	0
bin	490	0
bin	500	0
bin	510	0
bin	520	0
bin	530	0
bin	540	0
bin	550	0
bin	560	0
bin	570	0
bin	580	0
bin	590	0
bin	600	0
bin	610	0
bin	620	0
bin	630	0
bin	640	0
bin	650	0
bin	660	0
bin	670	629
bin	680	0
bin	690	0
bin	700	0
bin	710	0
bin	720	0
bin	730	0
bin	740	0
bin	750	0
bin	760	0
bin	770	0
bin	780	0
bin	790	0
statistic dsdv25AdhocHighMobilityNetwork.host[0].wlan[0].queue flowQueueingTime:histogram
field count 0
field mean nan
field stddev nan
field min nan
field max nan
field sum 0
field sqrsum 0
attr interpolationmode none
attr recordingmode histogram
attr source queueingTime(demuxFlow(packetPulled))
attr title "flow queueing times"
attr unit s
bin	-inf	0
bin	0	0
bin	1	0
scalar dsdv25AdhocHighMobilityNetwork.host[0].wlan[0].queue incomingPackets:count 668
attr recordingmode count
attr source packetPushStarted
attr title "incoming packets, count"
attr unit pk
scalar dsdv25AdhocHighMobilityNetwork.host[0].wlan[0].queue incomingPacketLengths:sum 433856
attr interpolationmode none
attr recordingmode sum
attr source packetLength(packetPushStarted)
attr title "incoming packet lengths, sum"
attr unit b
statistic dsdv25AdhocHighMobilityNetwork.host[0].wlan[0].queue incomingPacketLengths:histogram
field count 668
field mean 649.48502994012
field stddev 90.520789152629
field min 224
field max 672
field sum 433856
field sqrsum 287248384
attr interpolationmode none
attr recordingmode histogram
attr source packetLength(packetPushStarted)
attr title "incoming packet lengths"
attr unit b
bin	-inf	0
bin	110	0
bin	120	0
bin	130	0
bin	140	0
bin	150	0
bin	160	0
bin	170	0
bin	180	0
bin	190	0
bin	200	0
bin	210	0
bin	220	1
bin	230	0
bin	240	0
bin	250	0
bin	260	0
bin	270	0
bin	280	38
bin	290	0
bin	300	0
bin	310	0
bin	320	0
bin	330	0
bin	340	0
bin	350	0
bin	360	0
bin	370	0
bin	380	0
bin	390	0
bin	400	0
bin	410	0
bin	420	0
bin	430	0
bin	440	0
bin	450	0
bin	460	0
bin	470	0
bin	480	0
bin	490	0
bin	500	0
bin	510	0
bin	520	0
bin	530	0
bin	540	0
bin	550	0
bin	560	0
bin	570	0
bin	580	0
bin	590	0
bin	600	0
bin	610	0
bin	620	0
bin	630	0
bin	640	0
bin	650	0
bin	660	0
bin	670	629
bin	680	0
bin	690	0
bin	700	0
bin	710	0
bin	720	0
bin	730	0
bin	740	0
bin	750	0
bin	760	0
bin	770	0
bin	780	0
bin	790	0
scalar dsdv25AdhocHighMobilityNetwork.host[0].wlan[0].queue droppedPacketsQueueOverflow:count 0
attr interpolationmode none
attr recordingmode count
attr source packetDropReasonIsQueueOverflow(packetDropped)
attr title "dropped packets: queue overflow, count"
attr unit pk
scalar dsdv25AdhocHighMobilityNetwork.host[0].wlan[0].queue droppedPacketLengthsQueueOverflow:sum 0
attr interpolationmode none
attr recordingmode sum
attr source packetLength(packetDropReasonIsQueueOverflow(packetDropped))
attr title "dropped packet lengths: queue overflow, sum"
attr unit b
par dsdv25AdhocHighMobilityNetwork.host[0].wlan[0].mac typename "\"inet.linklayer.acking.AckingMac\""
par dsdv25AdhocHighMobilityNetwork.host[0].wlan[0].mac interfaceTableModule "\"dsdv25AdhocHighMobilityNetwork.host[0].interfaceTable\""
par dsdv25AdhocHighMobilityNetwork.host[0].wlan[0].mac address "\"auto\""
attr mutable ""
par dsdv25AdhocHighMobilityNetwork.host[0].wlan[0].mac bitrate 1e+07bps
attr unit bps
par dsdv25AdhocHighMobilityNetwork.host[0].wlan[0].mac mtu 4470B
attr unit B
par dsdv25AdhocHighMobilityNetwork.host[0].wlan[0].mac headerLength 23B
attr unit B
par dsdv25AdhocHighMobilityNetwork.host[0].wlan[0].mac promiscuous false
par dsdv25AdhocHighMobilityNetwork.host[0].wlan[0].mac fullDuplex true
par dsdv25AdhocHighMobilityNetwork.host[0].wlan[0].mac useAck true
par dsdv25AdhocHighMobilityNetwork.host[0].wlan[0].mac ackTimeout 0.1s
attr unit s
scalar dsdv25AdhocHighMobilityNetwork.host[0].wlan[0].mac rcvdPkFromLl:count 749
attr interpolationmode none
attr recordingmode count
attr source packetReceivedFromLower
attr title "packets received from lower layer, count"
scalar dsdv25AdhocHighMobilityNetwork.host[0].wlan[0].mac rcvdPkFromLl:sum(packetBytes) 78591
attr interpolationmode none
attr recordingmode sum(packetBytes)
attr source packetReceivedFromLower
attr title "packets received from lower layer, sum(packetBytes)"
scalar dsdv25AdhocHighMobilityNetwork.host[0].wlan[0].mac sentDownPk:count 668
attr interpolationmode none
attr recordingmode count
attr source packetSentToLower
attr title "packets sent to lower layer, count"
scalar dsdv25AdhocHighMobilityNetwork.host[0].wlan[0].mac sentDownPk:sum(packetBytes) 69596
attr interpolationmode none
attr recordingmode sum(packetBytes)
attr source packetSentToLower
attr title "packets sent to lower layer, sum(packetBytes)"
scalar dsdv25AdhocHighMobilityNetwork.host[0].wlan[0].mac rcvdPkFromHl:count 668
attr interpolationmode none
attr recordingmode count
attr source packetReceivedFromUpper
attr title "packets received from higher layer, count"
scalar dsdv25AdhocHighMobilityNetwork.host[0].wlan[0].mac rcvdPkFromHl:sum(packetBytes) 54232
attr interpolationmode none
attr recordingmode sum(packetBytes)
attr source packetReceivedFromUpper
attr title "packets received from higher layer, sum(packetBytes)"
scalar dsdv25AdhocHighMobilityNetwork.host[0].wlan[0].mac passedUpPk:count 723
attr interpolationmode none
attr recordingmode count
attr source packetSentToUpper
attr title "packets passed to higher layer, count"
scalar dsdv25AdhocHighMobilityNetwork.host[0].wlan[0].mac passedUpPk:sum(packetBytes) 59284
attr interpolationmode none
attr recordingmode sum(packetBytes)
attr source packetSentToUpper
attr title "packets passed to higher layer, sum(packetBytes)"
scalar dsdv25AdhocHighMobilityNetwork.host[0].wlan[0].mac packetDropIncorrectlyReceived:count 25
attr interpolationmode none
attr recordingmode count
attr source packetDropReasonIsIncorrectlyReceived(packetDropped)
attr title "packet drop: incorrectly received, count"
scalar dsdv25AdhocHighMobilityNetwork.host[0].wlan[0].mac packetDropIncorrectlyReceived:sum(packetBytes) 2627
attr interpolationmode none
attr recordingmode sum(packetBytes)
attr source packetDropReasonIsIncorrectlyReceived(packetDropped)
attr title "packet drop: incorrectly received, sum(packetBytes)"
scalar dsdv25AdhocHighMobilityNetwork.host[0].wlan[0].mac packetDropInterfaceDown:count 0
attr interpolationmode none
attr recordingmode count
attr source packetDropReasonIsInterfaceDown(packetDropped)
attr title "packet drop: interface down, count"
scalar dsdv25AdhocHighMobilityNetwork.host[0].wlan[0].mac packetDropInterfaceDown:sum(packetBytes) 0
attr interpolationmode none
attr recordingmode sum(packetBytes)
attr source packetDropReasonIsInterfaceDown(packetDropped)
attr title "packet drop: interface down, sum(packetBytes)"
scalar dsdv25AdhocHighMobilityNetwork.host[0].wlan[0].mac packetDropNotAddressedToUs:count 1
attr interpolationmode none
attr recordingmode count
attr source packetDropReasonIsNotAddressedToUs(packetDropped)
attr title "packet drop: not addressed to us, count"
scalar dsdv25AdhocHighMobilityNetwork.host[0].wlan[0].mac packetDropNotAddressedToUs:sum(packetBytes) 51
attr interpolationmode none
attr recordingmode sum(packetBytes)
attr source packetDropReasonIsNotAddressedToUs(packetDropped)
attr title "packet drop: not addressed to us, sum(packetBytes)"
scalar dsdv25AdhocHighMobilityNetwork.host[0].wlan[0].mac linkBroken:count 0
attr interpolationmode none
attr recordingmode count
attr source linkBroken
attr title "link break, count"
par dsdv25AdhocHighMobilityNetwork.host[0].wlan[0].radio.antenna typename "\"inet.physicallayer.wireless.common.antenna.IsotropicAntenna\""
par dsdv25AdhocHighMobilityNetwork.host[0].wlan[0].radio.antenna mobilityModule "\"^.^.^.mobility\""
par dsdv25AdhocHighMobilityNetwork.host[0].wlan[0].radio.antenna numAntennas 1
par dsdv25AdhocHighMobilityNetwork.host[0].wlan[0].radio.transmitter typename "\"inet.physicallayer.wireless.unitdisk.UnitDiskTransmitter\""
par dsdv25AdhocHighMobilityNetwork.host[0].wlan[0].radio.transmitter preambleDuration 0s
attr unit s
par dsdv25AdhocHighMobilityNetwork.host[0].wlan[0].radio.transmitter headerLength 96b
attr unit b
par dsdv25AdhocHighMobilityNetwork.host[0].wlan[0].radio.transmitter bitrate 1e+07bps
attr unit bps
par dsdv25AdhocHighMobilityNetwork.host[0].wlan[0].radio.transmitter communicationRange 50m
attr unit m
par dsdv25AdhocHighMobilityNetwork.host[0].wlan[0].radio.transmitter interferenceRange 100m
attr unit m
par dsdv25AdhocHighMobilityNetwork.host[0].wlan[0].radio.transmitter detectionRange 100m
attr unit m
par dsdv25AdhocHighMobilityNetwork.host[0].wlan[0].radio.receiver typename "\"inet.physicallayer.wireless.unitdisk.UnitDiskReceiver\""
par dsdv25AdhocHighMobilityNetwork.host[0].wlan[0].radio.receiver ignoreInterference false
par dsdv25AdhocHighMobilityNetwork.host[0].wlan[0].radio typename "\"inet.physicallayer.wireless.unitdisk.UnitDiskRadio\""
par dsdv25AdhocHighMobilityNetwork.host[0].wlan[0].radio radioMediumModule "\"radioMedium\""
par dsdv25AdhocHighMobilityNetwork.host[0].wlan[0].radio energySourceModule "\"\""
par dsdv25AdhocHighMobilityNetwork.host[0].wlan[0].radio initialRadioMode "\"off\""
attr enum off,sleep,receiver,transmitter,transceiver
par dsdv25AdhocHighMobilityNetwork.host[0].wlan[0].radio switchingTimes "\"ms 0 0 0 0 0 0 0 0 0 0 0 0 0 0 0 0 0 0 0 0 0 0 0 0 0\""
par dsdv25AdhocHighMobilityNetwork.host[0].wlan[0].radio sendRawBytes false
par dsdv25AdhocHighMobilityNetwork.host[0].wlan[0].radio separateTransmissionParts false
par dsdv25AdhocHighMobilityNetwork.host[0].wlan[0].radio separateReceptionParts false
par dsdv25AdhocHighMobilityNetwork.host[0].wlan[0].radio displayCommunicationRange false
par dsdv25AdhocHighMobilityNetwork.host[0].wlan[0].radio displayInterferenceRange false
statistic dsdv25AdhocHighMobilityNetwork.host[0].wlan[0].radio minSnir:histogram
field count 0
field mean nan
field stddev nan
field min nan
field max nan
field sum 0
field sqrsum 0
attr recordingmode histogram
attr source minimumSnir(packetSentToUpper)
attr title "Min SNIR"
bin	-inf	0
bin	0	0
bin	1	0
statistic dsdv25AdhocHighMobilityNetwork.host[0].wlan[0].radio packetErrorRate:histogram
field count 749
field mean 0.033377837116155
field stddev 0.17974117633619
field min 0
field max 1
field sum 25
field sqrsum 25
attr recordingmode histogram
attr source packetErrorRate(packetSentToUpper)
attr title "Packet error rate"
bin	-inf	0
bin	-0.5	0
bin	-0.48	0
bin	-0.46	0
bin	-0.44	0
bin	-0.42	0
bin	-0.4	0
bin	-0.38	0
bin	-0.36	0
bin	-0.34	0
bin	-0.32	0
bin	-0.3	0
bin	-0.28	0
bin	-0.26	0
bin	-0.24	0
bin	-0.22	0
bin	-0.2	0
bin	-0.18	0
bin	-0.16	0
bin	-0.14	0
bin	-0.12	0
bin	-0.1	0
bin	-0.08	0
bin	-0.06	0
bin	-0.04	0
bin	-0.02	0
bin	0	724
bin	0.02	0
bin	0.04	0
bin	0.06	0
bin	0.08	0
bin	0.1	0
bin	0.12	0
bin	0.14	0
bin	0.16	0
bin	0.18	0
bin	0.2	0
bin	0.22	0
bin	0.24	0
bin	0.26	0
bin	0.28	0
bin	0.3	0
bin	0.32	0
bin	0.34	0
bin	0.36	0
bin	0.38	0
bin	0.4	0
bin	0.42	0
bin	0.44	0
bin	0.46	0
bin	0.48	0
bin	0.5	0
bin	0.52	0
bin	0.54	0
bin	0.56	0
bin	0.58	0
bin	0.6	0
bin	0.62	0
bin	0.64	0
bin	0.66	0
bin	0.68	0
bin	0.7	0
bin	0.72	0
bin	0.74	0
bin	0.76	0
bin	0.78	0
bin	0.8	0
bin	0.82	0
bin	0.84	0
bin	0.86	0
bin	0.88	0
bin	0.9	0
bin	0.92	0
bin	0.94	0
bin	0.96	0
bin	0.98	0
bin	1	25
bin	1.02	0
statistic dsdv25AdhocHighMobilityNetwork.host[0].wlan[0].radio bitErrorRate:histogram
field count 749
field mean 0.033377837116155
field stddev 0.17974117633619
field min 0
field max 1
field sum 25
field sqrsum 25
attr recordingmode histogram
attr source bitErrorRate(packetSentToUpper)
attr title "Bit error rate"
bin	-inf	0
bin	-0.5	0
bin	-0.48	0
bin	-0.46	0
bin	-0.44	0
bin	-0.42	0
bin	-0.4	0
bin	-0.38	0
bin	-0.36	0
bin	-0.34	0
bin	-0.32	0
bin	-0.3	0
bin	-0.28	0
bin	-0.26	0
bin	-0.24	0
bin	-0.22	0
bin	-0.2	0
bin	-0.18	0
bin	-0.16	0
bin	-0.14	0
bin	-0.12	0
bin	-0.1	0
bin	-0.08	0
bin	-0.06	0
bin	-0.04	0
bin	-0.02	0
bin	0	724
bin	0.02	0
bin	0.04	0
bin	0.06	0
bin	0.08	0
bin	0.1	0
bin	0.12	0
bin	0.14	0
bin	0.16	0
bin	0.18	0
bin	0.2	0
bin	0.22	0
bin	0.24	0
bin	0.26	0
bin	0.28	0
bin	0.3	0
bin	0.32	0
bin	0.34	0
bin	0.36	0
bin	0.38	0
bin	0.4	0
bin	0.42	0
bin	0.44	0
bin	0.46	0
bin	0.48	0
bin	0.5	0
bin	0.52	0
bin	0.54	0
bin	0.56	0
bin	0.58	0
bin	0.6	0
bin	0.62	0
bin	0.64	0
bin	0.66	0
bin	0.68	0
bin	0.7	0
bin	0.72	0
bin	0.74	0
bin	0.76	0
bin	0.78	0
bin	0.8	0
bin	0.82	0
bin	0.84	0
bin	0.86	0
bin	0.88	0
bin	0.9	0
bin	0.92	0
bin	0.94	0
bin	0.96	0
bin	0.98	0
bin	1	25
bin	1.02	0
statistic dsdv25AdhocHighMobilityNetwork.host[0].wlan[0].radio symbolErrorRate:histogram
field count 749
field mean 0.033377837116155
field stddev 0.17974117633619
field min 0
field max 1
field sum 25
field sqrsum 25
attr recordingmode histogram
attr source symbolErrorRate(packetSentToUpper)
attr title "Symbol error rate"
bin	-inf	0
bin	-0.5	0
bin	-0.48	0
bin	-0.46	0
bin	-0.44	0
bin	-0.42	0
bin	-0.4	0
bin	-0.38	0
bin	-0.36	0
bin	-0.34	0
bin	-0.32	0
bin	-0.3	0
bin	-0.28	0
bin	-0.26	0
bin	-0.24	0
bin	-0.22	0
bin	-0.2	0
bin	-0.18	0
bin	-0.16	0
bin	-0.14	0
bin	-0.12	0
bin	-0.1	0
bin	-0.08	0
bin	-0.06	0
bin	-0.04	0
bin	-0.02	0
bin	0	724
bin	0.02	0
bin	0.04	0
bin	0.06	0
bin	0.08	0
bin	0.1	0
bin	0.12	0
bin	0.14	0
bin	0.16	0
bin	0.18	0
bin	0.2	0
bin	0.22	0
bin	0.24	0
bin	0.26	0
bin	0.28	0
bin	0.3	0
bin	0.32	0
bin	0.34	0
bin	0.36	0
bin	0.38	0
bin	0.4	0
bin	0.42	0
bin	0.44	0
bin	0.46	0
bin	0.48	0
bin	0.5	0
bin	0.52	0
bin	0.54	0
bin	0.56	0
bin	0.58	0
bin	0.6	0
bin	0.62	0
bin	0.64	0
bin	0.66	0
bin	0.68	0
bin	0.7	0
bin	0.72	0
bin	0.74	0
bin	0.76	0
bin	0.78	0
bin	0.8	0
bin	0.82	0
bin	0.84	0
bin	0.86	0
bin	0.88	0
bin	0.9	0
bin	0.92	0
bin	0.94	0
bin	0.96	0
bin	0.98	0
bin	1	25
bin	1.02	0
scalar dsdv25AdhocHighMobilityNetwork.host[0].wlan[0].radio transmissionState:count 1337
attr interpolationmode sample-hold
attr recordingmode count
attr source transmissionStateChanged
attr title "Radio transmission state, count"
scalar dsdv25AdhocHighMobilityNetwork.host[0].wlan[0].radio receptionState:count 1795
attr interpolationmode sample-hold
attr recordingmode count
attr source receptionStateChanged
attr title "Radio reception state, count"
scalar dsdv25AdhocHighMobilityNetwork.host[0].wlan[0].radio radioMode:count 3
attr interpolationmode sample-hold
attr recordingmode count
attr source radioModeChanged
attr title "Radio mode, count"
par dsdv25AdhocHighMobilityNetwork.host[0].wlan[0] typename "\"inet.linklayer.acking.AckingWirelessInterface\""
par dsdv25AdhocHighMobilityNetwork.host[0].wlan[0] displayStringTextFormat "\"%a (%i)\\n%m\""
par dsdv25AdhocHighMobilityNetwork.host[0].wlan[0] recordPcap false
par dsdv25AdhocHighMobilityNetwork.host[0].wlan[0] numPcapRecorders 0
par dsdv25AdhocHighMobilityNetwork.host[0].wlan[0] interfaceTableModule "\"dsdv25AdhocHighMobilityNetwork.host[0].interfaceTable\""
par dsdv25AdhocHighMobilityNetwork.host[0].wlan[0] energySourceModule "\"\""
par dsdv25AdhocHighMobilityNetwork.host[0].wlan[0] bitrate 1e+07bps
attr unit bps
scalar dsdv25AdhocHighMobilityNetwork.host[0].wlan[0] packetDropInterfaceDown:count 0
attr interpolationmode none
attr recordingmode count
attr source packetDropReasonIsInterfaceDown(packetDropped)
attr title "packet drops: interface down, count"
scalar dsdv25AdhocHighMobilityNetwork.host[0].wlan[0] packetDropInterfaceDown:sum(packetBytes) 0
attr interpolationmode none
attr recordingmode sum(packetBytes)
attr source packetDropReasonIsInterfaceDown(packetDropped)
attr title "packet drops: interface down, sum(packetBytes)"
scalar dsdv25AdhocHighMobilityNetwork.host[0].wlan[0] packetDropNoCarrier:count 0
attr interpolationmode none
attr recordingmode count
attr source packetDropReasonIsNoCarrier(packetDropped)
attr title "packet drops: no carrier, count"
scalar dsdv25AdhocHighMobilityNetwork.host[0].wlan[0] packetDropNoCarrier:sum(packetBytes) 0
attr interpolationmode none
attr recordingmode sum(packetBytes)
attr source packetDropReasonIsNoCarrier(packetDropped)
attr title "packet drops: no carrier, sum(packetBytes)"
par dsdv25AdhocHighMobilityNetwork.host[0].ipv4.transportIn.channel typename "\"ned.IdealChannel\""
par dsdv25AdhocHighMobilityNetwork.host[0].ipv4.up.out[0].channel typename "\"ned.IdealChannel\""
par dsdv25AdhocHighMobilityNetwork.host[0].ipv4.lp.out[2].channel typename "\"ned.IdealChannel\""
par dsdv25AdhocHighMobilityNetwork.host[0].ipv4.ifIn.channel typename "\"ned.IdealChannel\""
par dsdv25AdhocHighMobilityNetwork.host[0].ipv4.configurator typename "\"inet.networklayer.configurator.ipv4.Ipv4NodeConfigurator\""
par dsdv25AdhocHighMobilityNetwork.host[0].ipv4.configurator interfaceTableModule "\"dsdv25AdhocHighMobilityNetwork.host[0].interfaceTable\""
par dsdv25AdhocHighMobilityNetwork.host[0].ipv4.configurator routingTableModule "\"dsdv25AdhocHighMobilityNetwork.host[0].ipv4.routingTable\""
par dsdv25AdhocHighMobilityNetwork.host[0].ipv4.configurator networkConfiguratorModule "\"configurator\""
par dsdv25AdhocHighMobilityNetwork.host[0].ipv4.configurator configureRoutingTable true
par dsdv25AdhocHighMobilityNetwork.host[0].ipv4.routingTable typename "\"inet.networklayer.ipv4.Ipv4RoutingTable\""
par dsdv25AdhocHighMobilityNetwork.host[0].ipv4.routingTable interfaceTableModule "\"dsdv25AdhocHighMobilityNetwork.host[0].interfaceTable\""
par dsdv25AdhocHighMobilityNetwork.host[0].ipv4.routingTable routerId "\"auto\""
par dsdv25AdhocHighMobilityNetwork.host[0].ipv4.routingTable netmaskRoutes "\"*\""
par dsdv25AdhocHighMobilityNetwork.host[0].ipv4.routingTable forwarding true
par dsdv25AdhocHighMobilityNetwork.host[0].ipv4.routingTable multicastForwarding false
par dsdv25AdhocHighMobilityNetwork.host[0].ipv4.routingTable useAdminDist false
par dsdv25AdhocHighMobilityNetwork.host[0].ipv4.routingTable routingFile "\"\""
par dsdv25AdhocHighMobilityNetwork.host[0].ipv4.natTable typename "\"inet.networklayer.ipv4.Ipv4NatTable\""
par dsdv25AdhocHighMobilityNetwork.host[0].ipv4.natTable networkProtocolModule "\"^.ip\""
par dsdv25AdhocHighMobilityNetwork.host[0].ipv4.natTable config "<config/> at content:1"
par dsdv25AdhocHighMobilityNetwork.host[0].ipv4.up typename "\"inet.common.MessageDispatcher\""
par dsdv25AdhocHighMobilityNetwork.host[0].ipv4.up displayStringTextFormat "\"processed %p pk (%l)\""
par dsdv25AdhocHighMobilityNetwork.host[0].ipv4.up forwardServiceRegistration true
par dsdv25AdhocHighMobilityNetwork.host[0].ipv4.up forwardProtocolRegistration true
par dsdv25AdhocHighMobilityNetwork.host[0].ipv4.igmp typename "\"inet.networklayer.ipv4.Igmpv2\""
par dsdv25AdhocHighMobilityNetwork.host[0].ipv4.igmp interfaceTableModule "\"dsdv25AdhocHighMobilityNetwork.host[0].interfaceTable\""
par dsdv25AdhocHighMobilityNetwork.host[0].ipv4.igmp routingTableModule "\"dsdv25AdhocHighMobilityNetwork.host[0].ipv4.routingTable\""
par dsdv25AdhocHighMobilityNetwork.host[0].ipv4.igmp crcMode "\"declared\""
attr enum declared,computed
par dsdv25AdhocHighMobilityNetwork.host[0].ipv4.igmp enabled true
par dsdv25AdhocHighMobilityNetwork.host[0].ipv4.igmp robustnessVariable 2
par dsdv25AdhocHighMobilityNetwork.host[0].ipv4.igmp queryInterval 125s
attr unit s
par dsdv25AdhocHighMobilityNetwork.host[0].ipv4.igmp queryResponseInterval 10s
attr unit s
par dsdv25AdhocHighMobilityNetwork.host[0].ipv4.igmp groupMembershipInterval 260s
attr unit s
par dsdv25AdhocHighMobilityNetwork.host[0].ipv4.igmp otherQuerierPresentInterval 255s
attr unit s
par dsdv25AdhocHighMobilityNetwork.host[0].ipv4.igmp startupQueryInterval 31.25s
attr unit s
par dsdv25AdhocHighMobilityNetwork.host[0].ipv4.igmp startupQueryCount 2
par dsdv25AdhocHighMobilityNetwork.host[0].ipv4.igmp lastMemberQueryInterval 1s
attr unit s
par dsdv25AdhocHighMobilityNetwork.host[0].ipv4.igmp lastMemberQueryCount 2
par dsdv25AdhocHighMobilityNetwork.host[0].ipv4.igmp unsolicitedReportInterval 10s
attr unit s
par dsdv25AdhocHighMobilityNetwork.host[0].ipv4.icmp typename "\"inet.networklayer.ipv4.Icmp\""
par dsdv25AdhocHighMobilityNetwork.host[0].ipv4.icmp interfaceTableModule "\"dsdv25AdhocHighMobilityNetwork.host[0].interfaceTable\""
par dsdv25AdhocHighMobilityNetwork.host[0].ipv4.icmp routingTableModule "\"dsdv25AdhocHighMobilityNetwork.host[0].ipv4.routingTable\""
par dsdv25AdhocHighMobilityNetwork.host[0].ipv4.icmp crcMode "\"declared\""
attr enum declared,computed
attr mutable ""
par dsdv25AdhocHighMobilityNetwork.host[0].ipv4.icmp quoteLength 8B
attr mutable ""
attr unit B
par dsdv25AdhocHighMobilityNetwork.host[0].ipv4.mp typename "\"inet.common.MessageDispatcher\""
par dsdv25AdhocHighMobilityNetwork.host[0].ipv4.mp displayStringTextFormat "\"processed %p pk (%l)\""
par dsdv25AdhocHighMobilityNetwork.host[0].ipv4.mp forwardServiceRegistration true
par dsdv25AdhocHighMobilityNetwork.host[0].ipv4.mp forwardProtocolRegistration true
par dsdv25AdhocHighMobilityNetwork.host[0].ipv4.ip typename "\"inet.networklayer.ipv4.Ipv4\""
par dsdv25AdhocHighMobilityNetwork.host[0].ipv4.ip interfaceTableModule "\"dsdv25AdhocHighMobilityNetwork.host[0].interfaceTable\""
par dsdv25AdhocHighMobilityNetwork.host[0].ipv4.ip routingTableModule "\"dsdv25AdhocHighMobilityNetwork.host[0].ipv4.routingTable\""
par dsdv25AdhocHighMobilityNetwork.host[0].ipv4.ip arpModule "\"dsdv25AdhocHighMobilityNetwork.host[0].ipv4.arp\""
par dsdv25AdhocHighMobilityNetwork.host[0].ipv4.ip icmpModule "\"dsdv25AdhocHighMobilityNetwork.host[0].ipv4.icmp\""
par dsdv25AdhocHighMobilityNetwork.host[0].ipv4.ip crcMode "\"declared\""
attr enum declared,computed
par dsdv25AdhocHighMobilityNetwork.host[0].ipv4.ip timeToLive 32
par dsdv25AdhocHighMobilityNetwork.host[0].ipv4.ip multicastTimeToLive 32
par dsdv25AdhocHighMobilityNetwork.host[0].ipv4.ip fragmentTimeout 60s
attr unit s
par dsdv25AdhocHighMobilityNetwork.host[0].ipv4.ip limitedBroadcast false
par dsdv25AdhocHighMobilityNetwork.host[0].ipv4.ip directBroadcastInterfaces "\"\""
scalar dsdv25AdhocHighMobilityNetwork.host[0].ipv4.ip packetDropAddressResolutionFailed:count 0
attr interpolationmode none
attr recordingmode count
attr source packetDropReasonIsAddressResolutionFailed(packetDropped)
attr title "packet drop: address resolution failed, count"
scalar dsdv25AdhocHighMobilityNetwork.host[0].ipv4.ip packetDropAddressResolutionFailed:sum(packetBytes) 0
attr interpolationmode none
attr recordingmode sum(packetBytes)
attr source packetDropReasonIsAddressResolutionFailed(packetDropped)
attr title "packet drop: address resolution failed, sum(packetBytes)"
scalar dsdv25AdhocHighMobilityNetwork.host[0].ipv4.ip packetDropHopLimitReached:count 0
attr interpolationmode none
attr recordingmode count
attr source packetDropReasonIsHopLimitReached(packetDropped)
attr title "packet drop: hop limit reached, count"
scalar dsdv25AdhocHighMobilityNetwork.host[0].ipv4.ip packetDropHopLimitReached:sum(packetBytes) 0
attr interpolationmode none
attr recordingmode sum(packetBytes)
attr source packetDropReasonIsHopLimitReached(packetDropped)
attr title "packet drop: hop limit reached, sum(packetBytes)"
scalar dsdv25AdhocHighMobilityNetwork.host[0].ipv4.ip packetDropForwardingDisabled:count 0
attr interpolationmode none
attr recordingmode count
attr source packetDropReasonIsForwardingDisabled(packetDropped)
attr title "packet drop: forwarding disabled, count"
scalar dsdv25AdhocHighMobilityNetwork.host[0].ipv4.ip packetDropForwardingDisabled:sum(packetBytes) 0
attr interpolationmode none
attr recordingmode sum(packetBytes)
attr source packetDropReasonIsForwardingDisabled(packetDropped)
attr title "packet drop: forwarding disabled, sum(packetBytes)"
scalar dsdv25AdhocHighMobilityNetwork.host[0].ipv4.ip packetDropNoInterfaceFound:count 0
attr interpolationmode none
attr recordingmode count
attr source packetDropReasonIsNoInterfaceFound(packetDropped)
attr title "packet drop: no interface found, count"
scalar dsdv25AdhocHighMobilityNetwork.host[0].ipv4.ip packetDropNoInterfaceFound:sum(packetBytes) 0
attr interpolationmode none
attr recordingmode sum(packetBytes)
attr source packetDropReasonIsNoInterfaceFound(packetDropped)
attr title "packet drop: no interface found, sum(packetBytes)"
scalar dsdv25AdhocHighMobilityNetwork.host[0].ipv4.ip packetDropNoRouteFound:count 64
attr interpolationmode none
attr recordingmode count
attr source packetDropReasonIsNoRouteFound(packetDropped)
attr title "packet drop: no route found, count"
scalar dsdv25AdhocHighMobilityNetwork.host[0].ipv4.ip packetDropNoRouteFound:sum(packetBytes) 5376
attr interpolationmode none
attr recordingmode sum(packetBytes)
attr source packetDropReasonIsNoRouteFound(packetDropped)
attr title "packet drop: no route found, sum(packetBytes)"
scalar dsdv25AdhocHighMobilityNetwork.host[0].ipv4.ip packetDropUndefined:count 0
attr interpolationmode none
attr recordingmode count
attr source packetDropReasonIsUndefined(packetDropped)
attr title "packet drop: undefined, count"
scalar dsdv25AdhocHighMobilityNetwork.host[0].ipv4.ip packetDropUndefined:sum(packetBytes) 0
attr interpolationmode none
attr recordingmode sum(packetBytes)
attr source packetDropReasonIsUndefined(packetDropped)
attr title "packet drop: undefined, sum(packetBytes)"
par dsdv25AdhocHighMobilityNetwork.host[0].ipv4.arp typename "\"inet.networklayer.arp.ipv4.Arp\""
par dsdv25AdhocHighMobilityNetwork.host[0].ipv4.arp interfaceTableModule "\"dsdv25AdhocHighMobilityNetwork.host[0].interfaceTable\""
par dsdv25AdhocHighMobilityNetwork.host[0].ipv4.arp routingTableModule "\"dsdv25AdhocHighMobilityNetwork.host[0].ipv4.routingTable\""
par dsdv25AdhocHighMobilityNetwork.host[0].ipv4.arp retryTimeout 1s
attr unit s
par dsdv25AdhocHighMobilityNetwork.host[0].ipv4.arp retryCount 3
par dsdv25AdhocHighMobilityNetwork.host[0].ipv4.arp cacheTimeout 120s
attr unit s
par dsdv25AdhocHighMobilityNetwork.host[0].ipv4.arp proxyArpInterfaces "\"\""
scalar dsdv25AdhocHighMobilityNetwork.host[0].ipv4.arp arpReplySent:count 1
attr recordingmode count
attr source arpReplySent
attr title "ARP replies sent, count"
scalar dsdv25AdhocHighMobilityNetwork.host[0].ipv4.arp arpReplySent:sum(packetBytes) 28
attr recordingmode sum(packetBytes)
attr source arpReplySent
attr title "ARP replies sent, sum(packetBytes)"
scalar dsdv25AdhocHighMobilityNetwork.host[0].ipv4.arp arpRequestSent:count 0
attr recordingmode count
attr source arpRequestSent
attr title "ARP request sent, count"
scalar dsdv25AdhocHighMobilityNetwork.host[0].ipv4.arp arpRequestSent:sum(packetBytes) 0
attr recordingmode sum(packetBytes)
attr source arpRequestSent
attr title "ARP request sent, sum(packetBytes)"
scalar dsdv25AdhocHighMobilityNetwork.host[0].ipv4.arp arpResolutionFailed:count 0
attr recordingmode count
attr title "ARP failed resolutions, count"
scalar dsdv25AdhocHighMobilityNetwork.host[0].ipv4.arp arpResolutionCompleted:count 1
attr recordingmode count
attr title "ARP completed resolutions, count"
scalar dsdv25AdhocHighMobilityNetwork.host[0].ipv4.arp arpResolutionInitiated:count 0
attr recordingmode count
attr title "ARP initiated resolutions, count"
par dsdv25AdhocHighMobilityNetwork.host[0].ipv4.lp typename "\"inet.common.MessageDispatcher\""
par dsdv25AdhocHighMobilityNetwork.host[0].ipv4.lp displayStringTextFormat "\"processed %p pk (%l)\""
par dsdv25AdhocHighMobilityNetwork.host[0].ipv4.lp forwardServiceRegistration true
par dsdv25AdhocHighMobilityNetwork.host[0].ipv4.lp forwardProtocolRegistration true
par dsdv25AdhocHighMobilityNetwork.host[0].ipv4 typename "\"inet.networklayer.ipv4.Ipv4NetworkLayer\""
par dsdv25AdhocHighMobilityNetwork.host[0].ipv4 forwarding true
par dsdv25AdhocHighMobilityNetwork.host[0].ipv4 multicastForwarding false
par dsdv25AdhocHighMobilityNetwork.host[0].ipv4 interfaceTableModule "\"dsdv25AdhocHighMobilityNetwork.host[0].interfaceTable\""
par dsdv25AdhocHighMobilityNetwork.host[0].ipv4 displayStringTextFormat "\"%i\""
par dsdv25AdhocHighMobilityNetwork.host[0].nl typename "\"inet.common.MessageDispatcher\""
par dsdv25AdhocHighMobilityNetwork.host[0].nl displayStringTextFormat "\"processed %p pk (%l)\""
par dsdv25AdhocHighMobilityNetwork.host[0].nl forwardServiceRegistration true
par dsdv25AdhocHighMobilityNetwork.host[0].nl forwardProtocolRegistration true
par dsdv25AdhocHighMobilityNetwork.host[0].udp typename "\"inet.transportlayer.udp.Udp\""
par dsdv25AdhocHighMobilityNetwork.host[0].udp interfaceTableModule "\"dsdv25AdhocHighMobilityNetwork.host[0].interfaceTable\""
par dsdv25AdhocHighMobilityNetwork.host[0].udp icmpModule "\"^.ipv4.icmp\""
par dsdv25AdhocHighMobilityNetwork.host[0].udp icmpv6Module "\"^.ipv6.icmpv6\""
par dsdv25AdhocHighMobilityNetwork.host[0].udp crcMode "\"declared\""
attr enum disabled,declared,computed
par dsdv25AdhocHighMobilityNetwork.host[0].udp defaultMulticastLoop true
scalar dsdv25AdhocHighMobilityNetwork.host[0].udp packetReceived:count 0
attr interpolationmode none
attr recordingmode count
attr source packetReceived
attr title "packets received, count"
scalar dsdv25AdhocHighMobilityNetwork.host[0].udp packetReceived:sum(packetBytes) 0
attr interpolationmode none
attr recordingmode sum(packetBytes)
attr source packetReceived
attr title "packets received, sum(packetBytes)"
scalar dsdv25AdhocHighMobilityNetwork.host[0].udp packetSent:count 0
attr interpolationmode none
attr recordingmode count
attr source packetSent
attr title "packets sent, count"
scalar dsdv25AdhocHighMobilityNetwork.host[0].udp packetSent:sum(packetBytes) 0
attr interpolationmode none
attr recordingmode sum(packetBytes)
attr source packetSent
attr title "packets sent, sum(packetBytes)"
scalar dsdv25AdhocHighMobilityNetwork.host[0].udp passedUpPk:count 0
attr interpolationmode none
attr recordingmode count
attr source packetSentToUpper
attr title "packets passed up, count"
scalar dsdv25AdhocHighMobilityNetwork.host[0].udp droppedPkWrongPort:count 0
attr interpolationmode none
attr recordingmode count
attr source packetDropReasonIsNoPortFound(packetDropped)
attr title "packets dropped (wrong port), count"
scalar dsdv25AdhocHighMobilityNetwork.host[0].udp droppedPkBadChecksum:count 0
attr interpolationmode none
attr recordingmode count
attr source packetDropReasonIsIncorrectlyReceived(packetDropped)
attr title "packets dropped (checksum error), count"
par dsdv25AdhocHighMobilityNetwork.host[0].tcp typename "\"inet.transportlayer.tcp.Tcp\""
par dsdv25AdhocHighMobilityNetwork.host[0].tcp crcMode "\"declared\""
attr enum declared,computed
par dsdv25AdhocHighMobilityNetwork.host[0].tcp advertisedWindow 7504
par dsdv25AdhocHighMobilityNetwork.host[0].tcp delayedAcksEnabled false
par dsdv25AdhocHighMobilityNetwork.host[0].tcp nagleEnabled true
par dsdv25AdhocHighMobilityNetwork.host[0].tcp limitedTransmitEnabled false
par dsdv25AdhocHighMobilityNetwork.host[0].tcp increasedIWEnabled false
par dsdv25AdhocHighMobilityNetwork.host[0].tcp sackSupport false
par dsdv25AdhocHighMobilityNetwork.host[0].tcp windowScalingSupport false
par dsdv25AdhocHighMobilityNetwork.host[0].tcp windowScalingFactor -1
par dsdv25AdhocHighMobilityNetwork.host[0].tcp timestampSupport false
par dsdv25AdhocHighMobilityNetwork.host[0].tcp mss 536
par dsdv25AdhocHighMobilityNetwork.host[0].tcp msl 120s
attr unit s
par dsdv25AdhocHighMobilityNetwork.host[0].tcp tcpAlgorithmClass "\"TcpReno\""
par dsdv25AdhocHighMobilityNetwork.host[0].tcp useDataNotification false
par dsdv25AdhocHighMobilityNetwork.host[0].tcp dupthresh 3
par dsdv25AdhocHighMobilityNetwork.host[0].tcp initialSsthresh 4294967295
par dsdv25AdhocHighMobilityNetwork.host[0].tcp stopOperationExtraTime 0s
attr unit s
par dsdv25AdhocHighMobilityNetwork.host[0].tcp stopOperationTimeout 2s
attr unit s
par dsdv25AdhocHighMobilityNetwork.host[0].tcp ecnWillingness false
par dsdv25AdhocHighMobilityNetwork.host[0].tcp dctcpGamma 0.0625
par dsdv25AdhocHighMobilityNetwork.host[0].tn typename "\"inet.common.MessageDispatcher\""
par dsdv25AdhocHighMobilityNetwork.host[0].tn displayStringTextFormat "\"processed %p pk (%l)\""
par dsdv25AdhocHighMobilityNetwork.host[0].tn forwardServiceRegistration true
par dsdv25AdhocHighMobilityNetwork.host[0].tn forwardProtocolRegistration true
par dsdv25AdhocHighMobilityNetwork.host[0].app[0] typename "\"inet.applications.pingapp.PingApp\""
par dsdv25AdhocHighMobilityNetwork.host[0].app[0] destAddr "\"host[0,24](ipv4)\""
par dsdv25AdhocHighMobilityNetwork.host[0].app[0] srcAddr "\"\""
par dsdv25AdhocHighMobilityNetwork.host[0].app[0] packetSize 56B
attr unit B
par dsdv25AdhocHighMobilityNetwork.host[0].app[0] sendInterval "uniform(0.1s, 0.1s)"
attr unit s
par dsdv25AdhocHighMobilityNetwork.host[0].app[0] hopLimit -1
par dsdv25AdhocHighMobilityNetwork.host[0].app[0] count -1
par dsdv25AdhocHighMobilityNetwork.host[0].app[0] startTime 1s
attr unit s
par dsdv25AdhocHighMobilityNetwork.host[0].app[0] stopTime -1s
attr unit s
par dsdv25AdhocHighMobilityNetwork.host[0].app[0] sleepDuration 0s
attr unit s
par dsdv25AdhocHighMobilityNetwork.host[0].app[0] continuous false
par dsdv25AdhocHighMobilityNetwork.host[0].app[0] printPing true
par dsdv25AdhocHighMobilityNetwork.host[0].app[0] crcMode "\"declared\""
attr enum declared,computed
par dsdv25AdhocHighMobilityNetwork.host[0].app[0] networkProtocol "\"\""
par dsdv25AdhocHighMobilityNetwork.host[0].app[0] stopOperationExtraTime -1s
attr unit s
par dsdv25AdhocHighMobilityNetwork.host[0].app[0] stopOperationTimeout 2s
attr unit s
scalar dsdv25AdhocHighMobilityNetwork.host[0].app[0] "Pings sent" 1191
scalar dsdv25AdhocHighMobilityNetwork.host[0].app[0] "ping loss rate (%)" 0
scalar dsdv25AdhocHighMobilityNetwork.host[0].app[0] "ping out-of-order rate (%)" 0
scalar dsdv25AdhocHighMobilityNetwork.host[0].app[0] pingRxSeq:count 1191
attr interpolationmode none
attr recordingmode count
attr title "ping rx seq, count"
scalar dsdv25AdhocHighMobilityNetwork.host[0].app[0] pingTxSeq:count 1191
attr interpolationmode none
attr recordingmode count
attr title "ping tx seq, count"
scalar dsdv25AdhocHighMobilityNetwork.host[0].app[0] numOutOfOrderArrivals:last nan
attr interpolationmode none
attr recordingmode last
attr title "ping out-of-order arrivals, last"
scalar dsdv25AdhocHighMobilityNetwork.host[0].app[0] numLost:last nan
attr interpolationmode none
attr recordingmode last
attr title "pings lost, last"
statistic dsdv25AdhocHighMobilityNetwork.host[0].app[0] rtt:histogram
field count 0
field mean nan
field stddev nan
field min nan
field max nan
field sum 0
field sqrsum 0
attr interpolationmode none
attr recordingmode histogram
attr title "ping round-trip time"
attr unit s
bin	-inf	0
bin	0	0
bin	1	0
par dsdv25AdhocHighMobilityNetwork.host[0].at typename "\"inet.common.MessageDispatcher\""
par dsdv25AdhocHighMobilityNetwork.host[0].at displayStringTextFormat "\"processed %p pk (%l)\""
par dsdv25AdhocHighMobilityNetwork.host[0].at forwardServiceRegistration true
par dsdv25AdhocHighMobilityNetwork.host[0].at forwardProtocolRegistration true
par dsdv25AdhocHighMobilityNetwork.host[0].dsdv typename "\"inet.routing.dsdv.Dsdv\""
par dsdv25AdhocHighMobilityNetwork.host[0].dsdv interfaceTableModule "\"dsdv25AdhocHighMobilityNetwork.host[0].interfaceTable\""
par dsdv25AdhocHighMobilityNetwork.host[0].dsdv routingTableModule "\"^.ipv4.routingTable\""
par dsdv25AdhocHighMobilityNetwork.host[0].dsdv helloInterval 5s
attr unit s
par dsdv25AdhocHighMobilityNetwork.host[0].dsdv netmask "\"255.255.0.0\""
par dsdv25AdhocHighMobilityNetwork.host[0].dsdv maxVariance 1
par dsdv25AdhocHighMobilityNetwork.host[0].dsdv routeLifetime 5s
attr unit s
par dsdv25AdhocHighMobilityNetwork.host[0].dsdv manetPurgeRoutingTables true
par dsdv25AdhocHighMobilityNetwork.host[0].dsdv broadcastDelay "uniform(0s, 0.01s)"
attr unit s
par dsdv25AdhocHighMobilityNetwork.host[0] typename "\"inet.node.dsdv.DsdvRouter\""
par dsdv25AdhocHighMobilityNetwork.host[0] hasStatus true
par dsdv25AdhocHighMobilityNetwork.host[0] osgModel "\"\""
par dsdv25AdhocHighMobilityNetwork.host[0] osgModelColor "\"\""
par dsdv25AdhocHighMobilityNetwork.host[0] canvasImage "\"\""
par dsdv25AdhocHighMobilityNetwork.host[0] canvasImageColor "\"\""
par dsdv25AdhocHighMobilityNetwork.host[0] recordPcap false
par dsdv25AdhocHighMobilityNetwork.host[0] numPcapRecorders 0
par dsdv25AdhocHighMobilityNetwork.host[0] numLoInterfaces 1
par dsdv25AdhocHighMobilityNetwork.host[0] numWlanInterfaces 1
par dsdv25AdhocHighMobilityNetwork.host[0] numEthInterfaces 0
par dsdv25AdhocHighMobilityNetwork.host[0] numPppInterfaces 0
par dsdv25AdhocHighMobilityNetwork.host[0] numTunInterfaces 0
par dsdv25AdhocHighMobilityNetwork.host[0] numVirtInterfaces 0
par dsdv25AdhocHighMobilityNetwork.host[0] fcsMode "\"declared\""
attr enum declared,computed
par dsdv25AdhocHighMobilityNetwork.host[0] hasIpv4 true
par dsdv25AdhocHighMobilityNetwork.host[0] hasIpv6 false
par dsdv25AdhocHighMobilityNetwork.host[0] hasGn false
par dsdv25AdhocHighMobilityNetwork.host[0] forwarding true
par dsdv25AdhocHighMobilityNetwork.host[0] multicastForwarding false
par dsdv25AdhocHighMobilityNetwork.host[0] hasUdp true
par dsdv25AdhocHighMobilityNetwork.host[0] hasTcp true
par dsdv25AdhocHighMobilityNetwork.host[0] hasSctp false
par dsdv25AdhocHighMobilityNetwork.host[0] numApps 1
par dsdv25AdhocHighMobilityNetwork.host[1].radioIn[0].channel typename "\"ned.IdealChannel\""
par dsdv25AdhocHighMobilityNetwork.host[1].status typename "\"inet.common.lifecycle.NodeStatus\""
par dsdv25AdhocHighMobilityNetwork.host[1].status initialStatus "\"UP\""
par dsdv25AdhocHighMobilityNetwork.host[1].mobility typename "\"inet.mobility.single.MassMobility\""
par dsdv25AdhocHighMobilityNetwork.host[1].mobility subjectModule "\"^\""
par dsdv25AdhocHighMobilityNetwork.host[1].mobility coordinateSystemModule "\"\""
par dsdv25AdhocHighMobilityNetwork.host[1].mobility displayStringTextFormat "\"p: %p\\nv: %v\""
attr mutable ""
par dsdv25AdhocHighMobilityNetwork.host[1].mobility updateDisplayString true
par dsdv25AdhocHighMobilityNetwork.host[1].mobility constraintAreaMinX 0m
attr unit m
par dsdv25AdhocHighMobilityNetwork.host[1].mobility constraintAreaMinY 0m
attr unit m
par dsdv25AdhocHighMobilityNetwork.host[1].mobility constraintAreaMinZ 0m
attr unit m
par dsdv25AdhocHighMobilityNetwork.host[1].mobility constraintAreaMaxX 600m
attr unit m
par dsdv25AdhocHighMobilityNetwork.host[1].mobility constraintAreaMaxY 600m
attr unit m
par dsdv25AdhocHighMobilityNetwork.host[1].mobility constraintAreaMaxZ 0m
attr unit m
par dsdv25AdhocHighMobilityNetwork.host[1].mobility updateInterval 0.1s
attr unit s
par dsdv25AdhocHighMobilityNetwork.host[1].mobility faceForward true
par dsdv25AdhocHighMobilityNetwork.host[1].mobility initialX 0.0686286m
attr unit m
par dsdv25AdhocHighMobilityNetwork.host[1].mobility initialY 76.8747m
attr unit m
par dsdv25AdhocHighMobilityNetwork.host[1].mobility initialZ 0m
attr unit m
par dsdv25AdhocHighMobilityNetwork.host[1].mobility initialMovementHeading 359.655deg
attr unit deg
par dsdv25AdhocHighMobilityNetwork.host[1].mobility initialMovementElevation 0deg
attr unit deg
par dsdv25AdhocHighMobilityNetwork.host[1].mobility initFromDisplayString true
par dsdv25AdhocHighMobilityNetwork.host[1].mobility changeInterval "uniform(1s, 1s)"
attr unit s
par dsdv25AdhocHighMobilityNetwork.host[1].mobility angleDelta "uniform(0deg, 360deg)"
attr unit deg
par dsdv25AdhocHighMobilityNetwork.host[1].mobility rotationAxisAngle 0deg
attr unit deg
par dsdv25AdhocHighMobilityNetwork.host[1].mobility speed "normal(5mps, 5mps)"
attr mutable ""
attr unit mps
par dsdv25AdhocHighMobilityNetwork.host[1].interfaceTable typename "\"inet.networklayer.common.InterfaceTable\""
par dsdv25AdhocHighMobilityNetwork.host[1].interfaceTable displayAddresses false
par dsdv25AdhocHighMobilityNetwork.host[1].cb typename "\"inet.common.MessageDispatcher\""
par dsdv25AdhocHighMobilityNetwork.host[1].cb displayStringTextFormat "\"processed %p pk (%l)\""
par dsdv25AdhocHighMobilityNetwork.host[1].cb forwardServiceRegistration true
par dsdv25AdhocHighMobilityNetwork.host[1].cb forwardProtocolRegistration true
par dsdv25AdhocHighMobilityNetwork.host[1].bl typename "\"inet.common.MessageDispatcher\""
par dsdv25AdhocHighMobilityNetwork.host[1].bl displayStringTextFormat "\"processed %p pk (%l)\""
par dsdv25AdhocHighMobilityNetwork.host[1].bl forwardServiceRegistration true
par dsdv25AdhocHighMobilityNetwork.host[1].bl forwardProtocolRegistration true
par dsdv25AdhocHighMobilityNetwork.host[1].li typename "\"inet.common.MessageDispatcher\""
par dsdv25AdhocHighMobilityNetwork.host[1].li displayStringTextFormat "\"processed %p pk (%l)\""
par dsdv25AdhocHighMobilityNetwork.host[1].li forwardServiceRegistration true
par dsdv25AdhocHighMobilityNetwork.host[1].li forwardProtocolRegistration true
par dsdv25AdhocHighMobilityNetwork.host[1].lo[0].upperLayerIn.channel typename "\"ned.IdealChannel\""
par dsdv25AdhocHighMobilityNetwork.host[1].lo[0].lo.upperLayerOut.channel typename "\"ned.IdealChannel\""
par dsdv25AdhocHighMobilityNetwork.host[1].lo[0].lo typename "\"inet.linklayer.loopback.Loopback\""
par dsdv25AdhocHighMobilityNetwork.host[1].lo[0].lo interfaceTableModule "\"dsdv25AdhocHighMobilityNetwork.host[1].interfaceTable\""
par dsdv25AdhocHighMobilityNetwork.host[1].lo[0].lo mtu 4470B
attr unit B
scalar dsdv25AdhocHighMobilityNetwork.host[1].lo[0].lo rcvdPkFromHl:count 0
attr interpolationmode none
attr recordingmode count
attr source packetReceivedFromUpper
attr title "packets received from higher layer, count"
scalar dsdv25AdhocHighMobilityNetwork.host[1].lo[0].lo rcvdPkFromHl:sum(packetBytes) 0
attr interpolationmode none
attr recordingmode sum(packetBytes)
attr source packetReceivedFromUpper
attr title "packets received from higher layer, sum(packetBytes)"
scalar dsdv25AdhocHighMobilityNetwork.host[1].lo[0].lo passedUpPk:count 0
attr interpolationmode none
attr recordingmode count
attr source packetSentToUpper
attr title "packets passed to higher layer, count"
scalar dsdv25AdhocHighMobilityNetwork.host[1].lo[0].lo passedUpPk:sum(packetBytes) 0
attr interpolationmode none
attr recordingmode sum(packetBytes)
attr source packetSentToUpper
attr title "packets passed to higher layer, sum(packetBytes)"
par dsdv25AdhocHighMobilityNetwork.host[1].lo[0] typename "\"inet.linklayer.loopback.LoopbackInterface\""
par dsdv25AdhocHighMobilityNetwork.host[1].lo[0] displayStringTextFormat "\"%a (%i)\\n%m\""
par dsdv25AdhocHighMobilityNetwork.host[1].lo[0] recordPcap false
par dsdv25AdhocHighMobilityNetwork.host[1].lo[0] numPcapRecorders 0
par dsdv25AdhocHighMobilityNetwork.host[1].lo[0] interfaceTableModule "\"dsdv25AdhocHighMobilityNetwork.host[1].interfaceTable\""
scalar dsdv25AdhocHighMobilityNetwork.host[1].lo[0] packetDropInterfaceDown:count 0
attr interpolationmode none
attr recordingmode count
attr source packetDropReasonIsInterfaceDown(packetDropped)
attr title "packet drops: interface down, count"
scalar dsdv25AdhocHighMobilityNetwork.host[1].lo[0] packetDropInterfaceDown:sum(packetBytes) 0
attr interpolationmode none
attr recordingmode sum(packetBytes)
attr source packetDropReasonIsInterfaceDown(packetDropped)
attr title "packet drops: interface down, sum(packetBytes)"
scalar dsdv25AdhocHighMobilityNetwork.host[1].lo[0] packetDropNoCarrier:count 0
attr interpolationmode none
attr recordingmode count
attr source packetDropReasonIsNoCarrier(packetDropped)
attr title "packet drops: no carrier, count"
scalar dsdv25AdhocHighMobilityNetwork.host[1].lo[0] packetDropNoCarrier:sum(packetBytes) 0
attr interpolationmode none
attr recordingmode sum(packetBytes)
attr source packetDropReasonIsNoCarrier(packetDropped)
attr title "packet drops: no carrier, sum(packetBytes)"
par dsdv25AdhocHighMobilityNetwork.host[1].wlan[0].upperLayerIn.channel typename "\"ned.IdealChannel\""
par dsdv25AdhocHighMobilityNetwork.host[1].wlan[0].radioIn.channel typename "\"ned.IdealChannel\""
par dsdv25AdhocHighMobilityNetwork.host[1].wlan[0].mac.upperLayerOut.channel typename "\"ned.IdealChannel\""
par dsdv25AdhocHighMobilityNetwork.host[1].wlan[0].queue typename "\"inet.queueing.queue.DropTailQueue\""
par dsdv25AdhocHighMobilityNetwork.host[1].wlan[0].queue displayStringTextFormat "\"contains %p pk (%l) pushed %u\\npulled %o removed %r dropped %d\""
par dsdv25AdhocHighMobilityNetwork.host[1].wlan[0].queue packetCapacity 100
par dsdv25AdhocHighMobilityNetwork.host[1].wlan[0].queue dataCapacity -1b
attr unit b
par dsdv25AdhocHighMobilityNetwork.host[1].wlan[0].queue dropperClass "\"inet::queueing::PacketAtCollectionEndDropper\""
par dsdv25AdhocHighMobilityNetwork.host[1].wlan[0].queue comparatorClass "\"\""
par dsdv25AdhocHighMobilityNetwork.host[1].wlan[0].queue bufferModule "\"\""
scalar dsdv25AdhocHighMobilityNetwork.host[1].wlan[0].queue queueLength:last 0
attr autoWarmupFilter false
attr interpolationmode sample-hold
attr recordingmode last
attr source "warmup(atomic(constant0(packetPushEnded) + count(packetPushStarted) - count(packetPulled) - count(packetRemoved) - count(packetDropped)))"
attr title "queue length, last"
attr unit pk
scalar dsdv25AdhocHighMobilityNetwork.host[1].wlan[0].queue queueLength:max 0
attr autoWarmupFilter false
attr interpolationmode sample-hold
attr recordingmode max
attr source "warmup(atomic(constant0(packetPushEnded) + count(packetPushStarted) - count(packetPulled) - count(packetRemoved) - count(packetDropped)))"
attr title "queue length, max"
attr unit pk
scalar dsdv25AdhocHighMobilityNetwork.host[1].wlan[0].queue queueLength:timeavg 0
attr autoWarmupFilter false
attr interpolationmode sample-hold
attr recordingmode timeavg
attr source "warmup(atomic(constant0(packetPushEnded) + count(packetPushStarted) - count(packetPulled) - count(packetRemoved) - count(packetDropped)))"
attr title "queue length, timeavg"
attr unit pk
scalar dsdv25AdhocHighMobilityNetwork.host[1].wlan[0].queue queueBitLength:last 0
attr autoWarmupFilter false
attr interpolationmode sample-hold
attr recordingmode last
attr source "warmup(atomic(constant0(packetPushEnded) + sum(packetLength(packetPushStarted)) - sum(packetLength(packetPulled)) - sum(packetLength(packetRemoved)) - sum(packetLength(packetDropped))))"
attr title "queue bit length, last"
attr unit b
scalar dsdv25AdhocHighMobilityNetwork.host[1].wlan[0].queue queueBitLength:max 0
attr autoWarmupFilter false
attr interpolationmode sample-hold
attr recordingmode max
attr source "warmup(atomic(constant0(packetPushEnded) + sum(packetLength(packetPushStarted)) - sum(packetLength(packetPulled)) - sum(packetLength(packetRemoved)) - sum(packetLength(packetDropped))))"
attr title "queue bit length, max"
attr unit b
scalar dsdv25AdhocHighMobilityNetwork.host[1].wlan[0].queue queueBitLength:timeavg 0
attr autoWarmupFilter false
attr interpolationmode sample-hold
attr recordingmode timeavg
attr source "warmup(atomic(constant0(packetPushEnded) + sum(packetLength(packetPushStarted)) - sum(packetLength(packetPulled)) - sum(packetLength(packetRemoved)) - sum(packetLength(packetDropped))))"
attr title "queue bit length, timeavg"
attr unit b
statistic dsdv25AdhocHighMobilityNetwork.host[1].wlan[0].queue queueingTime:histogram
field count 33
field mean 0
field stddev 0
field min 0
field max 0
field sum 0
field sqrsum 0
attr interpolationmode none
attr recordingmode histogram
attr source queueingTime(packetPulled)
attr title "queueing times"
attr unit s
bin	-inf	0
bin	-0.5	0
bin	-0.48	0
bin	-0.46	0
bin	-0.44	0
bin	-0.42	0
bin	-0.4	0
bin	-0.38	0
bin	-0.36	0
bin	-0.34	0
bin	-0.32	0
bin	-0.3	0
bin	-0.28	0
bin	-0.26	0
bin	-0.24	0
bin	-0.22	0
bin	-0.2	0
bin	-0.18	0
bin	-0.16	0
bin	-0.14	0
bin	-0.12	0
bin	-0.1	0
bin	-0.08	0
bin	-0.06	0
bin	-0.04	0
bin	-0.02	0
bin	0	33
bin	0.02	0
bin	0.04	0
bin	0.06	0
bin	0.08	0
bin	0.1	0
bin	0.12	0
bin	0.14	0
bin	0.16	0
bin	0.18	0
bin	0.2	0
bin	0.22	0
bin	0.24	0
bin	0.26	0
bin	0.28	0
bin	0.3	0
bin	0.32	0
bin	0.34	0
bin	0.36	0
bin	0.38	0
bin	0.4	0
bin	0.42	0
bin	0.44	0
bin	0.46	0
bin	0.48	0
bin	0.5	0
scalar dsdv25AdhocHighMobilityNetwork.host[1].wlan[0].queue outgoingPackets:count 33
attr recordingmode count
attr source packetPulled
attr title "outgoing packets, count"
attr unit pk
scalar dsdv25AdhocHighMobilityNetwork.host[1].wlan[0].queue outgoingPacketLengths:sum 9504
attr interpolationmode none
attr recordingmode sum
attr source packetLength(packetPulled)
attr title "outgoing packet lengths, sum"
attr unit b
statistic dsdv25AdhocHighMobilityNetwork.host[1].wlan[0].queue outgoingPacketLengths:histogram
field count 33
field mean 288
field stddev 0
field min 288
field max 288
field sum 9504
field sqrsum 2737152
attr interpolationmode none
attr recordingmode histogram
attr source packetLength(packetPulled)
attr title "outgoing packet lengths"
attr unit b
bin	-inf	0
bin	287	0
bin	288	33
bin	289	0
statistic dsdv25AdhocHighMobilityNetwork.host[1].wlan[0].queue flowQueueingTime:histogram
field count 0
field mean nan
field stddev nan
field min nan
field max nan
field sum 0
field sqrsum 0
attr interpolationmode none
attr recordingmode histogram
attr source queueingTime(demuxFlow(packetPulled))
attr title "flow queueing times"
attr unit s
bin	-inf	0
bin	0	0
bin	1	0
scalar dsdv25AdhocHighMobilityNetwork.host[1].wlan[0].queue incomingPackets:count 33
attr recordingmode count
attr source packetPushStarted
attr title "incoming packets, count"
attr unit pk
scalar dsdv25AdhocHighMobilityNetwork.host[1].wlan[0].queue incomingPacketLengths:sum 9504
attr interpolationmode none
attr recordingmode sum
attr source packetLength(packetPushStarted)
attr title "incoming packet lengths, sum"
attr unit b
statistic dsdv25AdhocHighMobilityNetwork.host[1].wlan[0].queue incomingPacketLengths:histogram
field count 33
field mean 288
field stddev 0
field min 288
field max 288
field sum 9504
field sqrsum 2737152
attr interpolationmode none
attr recordingmode histogram
attr source packetLength(packetPushStarted)
attr title "incoming packet lengths"
attr unit b
bin	-inf	0
bin	287	0
bin	288	33
bin	289	0
scalar dsdv25AdhocHighMobilityNetwork.host[1].wlan[0].queue droppedPacketsQueueOverflow:count 0
attr interpolationmode none
attr recordingmode count
attr source packetDropReasonIsQueueOverflow(packetDropped)
attr title "dropped packets: queue overflow, count"
attr unit pk
scalar dsdv25AdhocHighMobilityNetwork.host[1].wlan[0].queue droppedPacketLengthsQueueOverflow:sum 0
attr interpolationmode none
attr recordingmode sum
attr source packetLength(packetDropReasonIsQueueOverflow(packetDropped))
attr title "dropped packet lengths: queue overflow, sum"
attr unit b
par dsdv25AdhocHighMobilityNetwork.host[1].wlan[0].mac typename "\"inet.linklayer.acking.AckingMac\""
par dsdv25AdhocHighMobilityNetwork.host[1].wlan[0].mac interfaceTableModule "\"dsdv25AdhocHighMobilityNetwork.host[1].interfaceTable\""
par dsdv25AdhocHighMobilityNetwork.host[1].wlan[0].mac address "\"auto\""
attr mutable ""
par dsdv25AdhocHighMobilityNetwork.host[1].wlan[0].mac bitrate 1e+07bps
attr unit bps
par dsdv25AdhocHighMobilityNetwork.host[1].wlan[0].mac mtu 4470B
attr unit B
par dsdv25AdhocHighMobilityNetwork.host[1].wlan[0].mac headerLength 23B
attr unit B
par dsdv25AdhocHighMobilityNetwork.host[1].wlan[0].mac promiscuous false
par dsdv25AdhocHighMobilityNetwork.host[1].wlan[0].mac fullDuplex true
par dsdv25AdhocHighMobilityNetwork.host[1].wlan[0].mac useAck true
par dsdv25AdhocHighMobilityNetwork.host[1].wlan[0].mac ackTimeout 0.1s
attr unit s
scalar dsdv25AdhocHighMobilityNetwork.host[1].wlan[0].mac rcvdPkFromLl:count 16
attr interpolationmode none
attr recordingmode count
attr source packetReceivedFromLower
attr title "packets received from lower layer, count"
scalar dsdv25AdhocHighMobilityNetwork.host[1].wlan[0].mac rcvdPkFromLl:sum(packetBytes) 944
attr interpolationmode none
attr recordingmode sum(packetBytes)
attr source packetReceivedFromLower
attr title "packets received from lower layer, sum(packetBytes)"
scalar dsdv25AdhocHighMobilityNetwork.host[1].wlan[0].mac sentDownPk:count 33
attr interpolationmode none
attr recordingmode count
attr source packetSentToLower
attr title "packets sent to lower layer, count"
scalar dsdv25AdhocHighMobilityNetwork.host[1].wlan[0].mac sentDownPk:sum(packetBytes) 1947
attr interpolationmode none
attr recordingmode sum(packetBytes)
attr source packetSentToLower
attr title "packets sent to lower layer, sum(packetBytes)"
scalar dsdv25AdhocHighMobilityNetwork.host[1].wlan[0].mac rcvdPkFromHl:count 33
attr interpolationmode none
attr recordingmode count
attr source packetReceivedFromUpper
attr title "packets received from higher layer, count"
scalar dsdv25AdhocHighMobilityNetwork.host[1].wlan[0].mac rcvdPkFromHl:sum(packetBytes) 1188
attr interpolationmode none
attr recordingmode sum(packetBytes)
attr source packetReceivedFromUpper
attr title "packets received from higher layer, sum(packetBytes)"
scalar dsdv25AdhocHighMobilityNetwork.host[1].wlan[0].mac passedUpPk:count 16
attr interpolationmode none
attr recordingmode count
attr source packetSentToUpper
attr title "packets passed to higher layer, count"
scalar dsdv25AdhocHighMobilityNetwork.host[1].wlan[0].mac passedUpPk:sum(packetBytes) 576
attr interpolationmode none
attr recordingmode sum(packetBytes)
attr source packetSentToUpper
attr title "packets passed to higher layer, sum(packetBytes)"
scalar dsdv25AdhocHighMobilityNetwork.host[1].wlan[0].mac packetDropIncorrectlyReceived:count 0
attr interpolationmode none
attr recordingmode count
attr source packetDropReasonIsIncorrectlyReceived(packetDropped)
attr title "packet drop: incorrectly received, count"
scalar dsdv25AdhocHighMobilityNetwork.host[1].wlan[0].mac packetDropIncorrectlyReceived:sum(packetBytes) 0
attr interpolationmode none
attr recordingmode sum(packetBytes)
attr source packetDropReasonIsIncorrectlyReceived(packetDropped)
attr title "packet drop: incorrectly received, sum(packetBytes)"
scalar dsdv25AdhocHighMobilityNetwork.host[1].wlan[0].mac packetDropInterfaceDown:count 0
attr interpolationmode none
attr recordingmode count
attr source packetDropReasonIsInterfaceDown(packetDropped)
attr title "packet drop: interface down, count"
scalar dsdv25AdhocHighMobilityNetwork.host[1].wlan[0].mac packetDropInterfaceDown:sum(packetBytes) 0
attr interpolationmode none
attr recordingmode sum(packetBytes)
attr source packetDropReasonIsInterfaceDown(packetDropped)
attr title "packet drop: interface down, sum(packetBytes)"
scalar dsdv25AdhocHighMobilityNetwork.host[1].wlan[0].mac packetDropNotAddressedToUs:count 0
attr interpolationmode none
attr recordingmode count
attr source packetDropReasonIsNotAddressedToUs(packetDropped)
attr title "packet drop: not addressed to us, count"
scalar dsdv25AdhocHighMobilityNetwork.host[1].wlan[0].mac packetDropNotAddressedToUs:sum(packetBytes) 0
attr interpolationmode none
attr recordingmode sum(packetBytes)
attr source packetDropReasonIsNotAddressedToUs(packetDropped)
attr title "packet drop: not addressed to us, sum(packetBytes)"
scalar dsdv25AdhocHighMobilityNetwork.host[1].wlan[0].mac linkBroken:count 0
attr interpolationmode none
attr recordingmode count
attr source linkBroken
attr title "link break, count"
par dsdv25AdhocHighMobilityNetwork.host[1].wlan[0].radio.antenna typename "\"inet.physicallayer.wireless.common.antenna.IsotropicAntenna\""
par dsdv25AdhocHighMobilityNetwork.host[1].wlan[0].radio.antenna mobilityModule "\"^.^.^.mobility\""
par dsdv25AdhocHighMobilityNetwork.host[1].wlan[0].radio.antenna numAntennas 1
par dsdv25AdhocHighMobilityNetwork.host[1].wlan[0].radio.transmitter typename "\"inet.physicallayer.wireless.unitdisk.UnitDiskTransmitter\""
par dsdv25AdhocHighMobilityNetwork.host[1].wlan[0].radio.transmitter preambleDuration 0s
attr unit s
par dsdv25AdhocHighMobilityNetwork.host[1].wlan[0].radio.transmitter headerLength 96b
attr unit b
par dsdv25AdhocHighMobilityNetwork.host[1].wlan[0].radio.transmitter bitrate 1e+07bps
attr unit bps
par dsdv25AdhocHighMobilityNetwork.host[1].wlan[0].radio.transmitter communicationRange 50m
attr unit m
par dsdv25AdhocHighMobilityNetwork.host[1].wlan[0].radio.transmitter interferenceRange 100m
attr unit m
par dsdv25AdhocHighMobilityNetwork.host[1].wlan[0].radio.transmitter detectionRange 100m
attr unit m
par dsdv25AdhocHighMobilityNetwork.host[1].wlan[0].radio.receiver typename "\"inet.physicallayer.wireless.unitdisk.UnitDiskReceiver\""
par dsdv25AdhocHighMobilityNetwork.host[1].wlan[0].radio.receiver ignoreInterference false
par dsdv25AdhocHighMobilityNetwork.host[1].wlan[0].radio typename "\"inet.physicallayer.wireless.unitdisk.UnitDiskRadio\""
par dsdv25AdhocHighMobilityNetwork.host[1].wlan[0].radio radioMediumModule "\"radioMedium\""
par dsdv25AdhocHighMobilityNetwork.host[1].wlan[0].radio energySourceModule "\"\""
par dsdv25AdhocHighMobilityNetwork.host[1].wlan[0].radio initialRadioMode "\"off\""
attr enum off,sleep,receiver,transmitter,transceiver
par dsdv25AdhocHighMobilityNetwork.host[1].wlan[0].radio switchingTimes "\"ms 0 0 0 0 0 0 0 0 0 0 0 0 0 0 0 0 0 0 0 0 0 0 0 0 0\""
par dsdv25AdhocHighMobilityNetwork.host[1].wlan[0].radio sendRawBytes false
par dsdv25AdhocHighMobilityNetwork.host[1].wlan[0].radio separateTransmissionParts false
par dsdv25AdhocHighMobilityNetwork.host[1].wlan[0].radio separateReceptionParts false
par dsdv25AdhocHighMobilityNetwork.host[1].wlan[0].radio displayCommunicationRange false
par dsdv25AdhocHighMobilityNetwork.host[1].wlan[0].radio displayInterferenceRange false
statistic dsdv25AdhocHighMobilityNetwork.host[1].wlan[0].radio minSnir:histogram
field count 0
field mean nan
field stddev nan
field min nan
field max nan
field sum 0
field sqrsum 0
attr recordingmode histogram
attr source minimumSnir(packetSentToUpper)
attr title "Min SNIR"
bin	-inf	0
bin	0	0
bin	1	0
statistic dsdv25AdhocHighMobilityNetwork.host[1].wlan[0].radio packetErrorRate:histogram
field count 16
field mean 0
field stddev 0
field min 0
field max 0
field sum 0
field sqrsum 0
attr recordingmode histogram
attr source packetErrorRate(packetSentToUpper)
attr title "Packet error rate"
bin	-inf	0
bin	-0.5	0
bin	-0.48	0
bin	-0.46	0
bin	-0.44	0
bin	-0.42	0
bin	-0.4	0
bin	-0.38	0
bin	-0.36	0
bin	-0.34	0
bin	-0.32	0
bin	-0.3	0
bin	-0.28	0
bin	-0.26	0
bin	-0.24	0
bin	-0.22	0
bin	-0.2	0
bin	-0.18	0
bin	-0.16	0
bin	-0.14	0
bin	-0.12	0
bin	-0.1	0
bin	-0.08	0
bin	-0.06	0
bin	-0.04	0
bin	-0.02	0
bin	0	16
bin	0.02	0
bin	0.04	0
bin	0.06	0
bin	0.08	0
bin	0.1	0
bin	0.12	0
bin	0.14	0
bin	0.16	0
[...]
par dsdv25AdhocHighMobilityNetwork.host[24].ipv4.natTable typename "\"inet.networklayer.ipv4.Ipv4NatTable\""
par dsdv25AdhocHighMobilityNetwork.host[24].ipv4.natTable networkProtocolModule "\"^.ip\""
par dsdv25AdhocHighMobilityNetwork.host[24].ipv4.natTable config "<config/> at content:1"
par dsdv25AdhocHighMobilityNetwork.host[24].ipv4.up typename "\"inet.common.MessageDispatcher\""
par dsdv25AdhocHighMobilityNetwork.host[24].ipv4.up displayStringTextFormat "\"processed %p pk (%l)\""
par dsdv25AdhocHighMobilityNetwork.host[24].ipv4.up forwardServiceRegistration true
par dsdv25AdhocHighMobilityNetwork.host[24].ipv4.up forwardProtocolRegistration true
par dsdv25AdhocHighMobilityNetwork.host[24].ipv4.igmp typename "\"inet.networklayer.ipv4.Igmpv2\""
par dsdv25AdhocHighMobilityNetwork.host[24].ipv4.igmp interfaceTableModule "\"dsdv25AdhocHighMobilityNetwork.host[24].interfaceTable\""
par dsdv25AdhocHighMobilityNetwork.host[24].ipv4.igmp routingTableModule "\"dsdv25AdhocHighMobilityNetwork.host[24].ipv4.routingTable\""
par dsdv25AdhocHighMobilityNetwork.host[24].ipv4.igmp crcMode "\"declared\""
attr enum declared,computed
par dsdv25AdhocHighMobilityNetwork.host[24].ipv4.igmp enabled true
par dsdv25AdhocHighMobilityNetwork.host[24].ipv4.igmp robustnessVariable 2
par dsdv25AdhocHighMobilityNetwork.host[24].ipv4.igmp queryInterval 125s
attr unit s
par dsdv25AdhocHighMobilityNetwork.host[24].ipv4.igmp queryResponseInterval 10s
attr unit s
par dsdv25AdhocHighMobilityNetwork.host[24].ipv4.igmp groupMembershipInterval 260s
attr unit s
par dsdv25AdhocHighMobilityNetwork.host[24].ipv4.igmp otherQuerierPresentInterval 255s
attr unit s
par dsdv25AdhocHighMobilityNetwork.host[24].ipv4.igmp startupQueryInterval 31.25s
attr unit s
par dsdv25AdhocHighMobilityNetwork.host[24].ipv4.igmp startupQueryCount 2
par dsdv25AdhocHighMobilityNetwork.host[24].ipv4.igmp lastMemberQueryInterval 1s
attr unit s
par dsdv25AdhocHighMobilityNetwork.host[24].ipv4.igmp lastMemberQueryCount 2
par dsdv25AdhocHighMobilityNetwork.host[24].ipv4.igmp unsolicitedReportInterval 10s
attr unit s
par dsdv25AdhocHighMobilityNetwork.host[24].ipv4.icmp typename "\"inet.networklayer.ipv4.Icmp\""
par dsdv25AdhocHighMobilityNetwork.host[24].ipv4.icmp interfaceTableModule "\"dsdv25AdhocHighMobilityNetwork.host[24].interfaceTable\""
par dsdv25AdhocHighMobilityNetwork.host[24].ipv4.icmp routingTableModule "\"dsdv25AdhocHighMobilityNetwork.host[24].ipv4.routingTable\""
par dsdv25AdhocHighMobilityNetwork.host[24].ipv4.icmp crcMode "\"declared\""
attr enum declared,computed
attr mutable ""
par dsdv25AdhocHighMobilityNetwork.host[24].ipv4.icmp quoteLength 8B
attr mutable ""
attr unit B
par dsdv25AdhocHighMobilityNetwork.host[24].ipv4.mp typename "\"inet.common.MessageDispatcher\""
par dsdv25AdhocHighMobilityNetwork.host[24].ipv4.mp displayStringTextFormat "\"processed %p pk (%l)\""
par dsdv25AdhocHighMobilityNetwork.host[24].ipv4.mp forwardServiceRegistration true
par dsdv25AdhocHighMobilityNetwork.host[24].ipv4.mp forwardProtocolRegistration true
par dsdv25AdhocHighMobilityNetwork.host[24].ipv4.ip typename "\"inet.networklayer.ipv4.Ipv4\""
par dsdv25AdhocHighMobilityNetwork.host[24].ipv4.ip interfaceTableModule "\"dsdv25AdhocHighMobilityNetwork.host[24].interfaceTable\""
par dsdv25AdhocHighMobilityNetwork.host[24].ipv4.ip routingTableModule "\"dsdv25AdhocHighMobilityNetwork.host[24].ipv4.routingTable\""
par dsdv25AdhocHighMobilityNetwork.host[24].ipv4.ip arpModule "\"dsdv25AdhocHighMobilityNetwork.host[24].ipv4.arp\""
par dsdv25AdhocHighMobilityNetwork.host[24].ipv4.ip icmpModule "\"dsdv25AdhocHighMobilityNetwork.host[24].ipv4.icmp\""
par dsdv25AdhocHighMobilityNetwork.host[24].ipv4.ip crcMode "\"declared\""
attr enum declared,computed
par dsdv25AdhocHighMobilityNetwork.host[24].ipv4.ip timeToLive 32
par dsdv25AdhocHighMobilityNetwork.host[24].ipv4.ip multicastTimeToLive 32
par dsdv25AdhocHighMobilityNetwork.host[24].ipv4.ip fragmentTimeout 60s
attr unit s
par dsdv25AdhocHighMobilityNetwork.host[24].ipv4.ip limitedBroadcast false
par dsdv25AdhocHighMobilityNetwork.host[24].ipv4.ip directBroadcastInterfaces "\"\""
scalar dsdv25AdhocHighMobilityNetwork.host[24].ipv4.ip packetDropAddressResolutionFailed:count 0
attr interpolationmode none
attr recordingmode count
attr source packetDropReasonIsAddressResolutionFailed(packetDropped)
attr title "packet drop: address resolution failed, count"
scalar dsdv25AdhocHighMobilityNetwork.host[24].ipv4.ip packetDropAddressResolutionFailed:sum(packetBytes) 0
attr interpolationmode none
attr recordingmode sum(packetBytes)
attr source packetDropReasonIsAddressResolutionFailed(packetDropped)
attr title "packet drop: address resolution failed, sum(packetBytes)"
scalar dsdv25AdhocHighMobilityNetwork.host[24].ipv4.ip packetDropHopLimitReached:count 0
attr interpolationmode none
attr recordingmode count
attr source packetDropReasonIsHopLimitReached(packetDropped)
attr title "packet drop: hop limit reached, count"
scalar dsdv25AdhocHighMobilityNetwork.host[24].ipv4.ip packetDropHopLimitReached:sum(packetBytes) 0
attr interpolationmode none
attr recordingmode sum(packetBytes)
attr source packetDropReasonIsHopLimitReached(packetDropped)
attr title "packet drop: hop limit reached, sum(packetBytes)"
scalar dsdv25AdhocHighMobilityNetwork.host[24].ipv4.ip packetDropForwardingDisabled:count 0
attr interpolationmode none
attr recordingmode count
attr source packetDropReasonIsForwardingDisabled(packetDropped)
attr title "packet drop: forwarding disabled, count"
scalar dsdv25AdhocHighMobilityNetwork.host[24].ipv4.ip packetDropForwardingDisabled:sum(packetBytes) 0
attr interpolationmode none
attr recordingmode sum(packetBytes)
attr source packetDropReasonIsForwardingDisabled(packetDropped)
attr title "packet drop: forwarding disabled, sum(packetBytes)"
scalar dsdv25AdhocHighMobilityNetwork.host[24].ipv4.ip packetDropNoInterfaceFound:count 0
attr interpolationmode none
attr recordingmode count
attr source packetDropReasonIsNoInterfaceFound(packetDropped)
attr title "packet drop: no interface found, count"
scalar dsdv25AdhocHighMobilityNetwork.host[24].ipv4.ip packetDropNoInterfaceFound:sum(packetBytes) 0
attr interpolationmode none
attr recordingmode sum(packetBytes)
attr source packetDropReasonIsNoInterfaceFound(packetDropped)
attr title "packet drop: no interface found, sum(packetBytes)"
scalar dsdv25AdhocHighMobilityNetwork.host[24].ipv4.ip packetDropNoRouteFound:count 1191
attr interpolationmode none
attr recordingmode count
attr source packetDropReasonIsNoRouteFound(packetDropped)
attr title "packet drop: no route found, count"
scalar dsdv25AdhocHighMobilityNetwork.host[24].ipv4.ip packetDropNoRouteFound:sum(packetBytes) 100044
attr interpolationmode none
attr recordingmode sum(packetBytes)
attr source packetDropReasonIsNoRouteFound(packetDropped)
attr title "packet drop: no route found, sum(packetBytes)"
scalar dsdv25AdhocHighMobilityNetwork.host[24].ipv4.ip packetDropUndefined:count 0
attr interpolationmode none
attr recordingmode count
attr source packetDropReasonIsUndefined(packetDropped)
attr title "packet drop: undefined, count"
scalar dsdv25AdhocHighMobilityNetwork.host[24].ipv4.ip packetDropUndefined:sum(packetBytes) 0
attr interpolationmode none
attr recordingmode sum(packetBytes)
attr source packetDropReasonIsUndefined(packetDropped)
attr title "packet drop: undefined, sum(packetBytes)"
par dsdv25AdhocHighMobilityNetwork.host[24].ipv4.arp typename "\"inet.networklayer.arp.ipv4.Arp\""
par dsdv25AdhocHighMobilityNetwork.host[24].ipv4.arp interfaceTableModule "\"dsdv25AdhocHighMobilityNetwork.host[24].interfaceTable\""
par dsdv25AdhocHighMobilityNetwork.host[24].ipv4.arp routingTableModule "\"dsdv25AdhocHighMobilityNetwork.host[24].ipv4.routingTable\""
par dsdv25AdhocHighMobilityNetwork.host[24].ipv4.arp retryTimeout 1s
attr unit s
par dsdv25AdhocHighMobilityNetwork.host[24].ipv4.arp retryCount 3
par dsdv25AdhocHighMobilityNetwork.host[24].ipv4.arp cacheTimeout 120s
attr unit s
par dsdv25AdhocHighMobilityNetwork.host[24].ipv4.arp proxyArpInterfaces "\"\""
scalar dsdv25AdhocHighMobilityNetwork.host[24].ipv4.arp arpReplySent:count 0
attr recordingmode count
attr source arpReplySent
attr title "ARP replies sent, count"
scalar dsdv25AdhocHighMobilityNetwork.host[24].ipv4.arp arpReplySent:sum(packetBytes) 0
attr recordingmode sum(packetBytes)
attr source arpReplySent
attr title "ARP replies sent, sum(packetBytes)"
scalar dsdv25AdhocHighMobilityNetwork.host[24].ipv4.arp arpRequestSent:count 0
attr recordingmode count
attr source arpRequestSent
attr title "ARP request sent, count"
scalar dsdv25AdhocHighMobilityNetwork.host[24].ipv4.arp arpRequestSent:sum(packetBytes) 0
attr recordingmode sum(packetBytes)
attr source arpRequestSent
attr title "ARP request sent, sum(packetBytes)"
scalar dsdv25AdhocHighMobilityNetwork.host[24].ipv4.arp arpResolutionFailed:count 0
attr recordingmode count
attr title "ARP failed resolutions, count"
scalar dsdv25AdhocHighMobilityNetwork.host[24].ipv4.arp arpResolutionCompleted:count 0
attr recordingmode count
attr title "ARP completed resolutions, count"
scalar dsdv25AdhocHighMobilityNetwork.host[24].ipv4.arp arpResolutionInitiated:count 0
attr recordingmode count
attr title "ARP initiated resolutions, count"
par dsdv25AdhocHighMobilityNetwork.host[24].ipv4.lp typename "\"inet.common.MessageDispatcher\""
par dsdv25AdhocHighMobilityNetwork.host[24].ipv4.lp displayStringTextFormat "\"processed %p pk (%l)\""
par dsdv25AdhocHighMobilityNetwork.host[24].ipv4.lp forwardServiceRegistration true
par dsdv25AdhocHighMobilityNetwork.host[24].ipv4.lp forwardProtocolRegistration true
par dsdv25AdhocHighMobilityNetwork.host[24].ipv4 typename "\"inet.networklayer.ipv4.Ipv4NetworkLayer\""
par dsdv25AdhocHighMobilityNetwork.host[24].ipv4 forwarding true
par dsdv25AdhocHighMobilityNetwork.host[24].ipv4 multicastForwarding false
par dsdv25AdhocHighMobilityNetwork.host[24].ipv4 interfaceTableModule "\"dsdv25AdhocHighMobilityNetwork.host[24].interfaceTable\""
par dsdv25AdhocHighMobilityNetwork.host[24].ipv4 displayStringTextFormat "\"%i\""
par dsdv25AdhocHighMobilityNetwork.host[24].nl typename "\"inet.common.MessageDispatcher\""
par dsdv25AdhocHighMobilityNetwork.host[24].nl displayStringTextFormat "\"processed %p pk (%l)\""
par dsdv25AdhocHighMobilityNetwork.host[24].nl forwardServiceRegistration true
par dsdv25AdhocHighMobilityNetwork.host[24].nl forwardProtocolRegistration true
par dsdv25AdhocHighMobilityNetwork.host[24].udp typename "\"inet.transportlayer.udp.Udp\""
par dsdv25AdhocHighMobilityNetwork.host[24].udp interfaceTableModule "\"dsdv25AdhocHighMobilityNetwork.host[24].interfaceTable\""
par dsdv25AdhocHighMobilityNetwork.host[24].udp icmpModule "\"^.ipv4.icmp\""
par dsdv25AdhocHighMobilityNetwork.host[24].udp icmpv6Module "\"^.ipv6.icmpv6\""
par dsdv25AdhocHighMobilityNetwork.host[24].udp crcMode "\"declared\""
attr enum disabled,declared,computed
par dsdv25AdhocHighMobilityNetwork.host[24].udp defaultMulticastLoop true
scalar dsdv25AdhocHighMobilityNetwork.host[24].udp packetReceived:count 0
attr interpolationmode none
attr recordingmode count
attr source packetReceived
attr title "packets received, count"
scalar dsdv25AdhocHighMobilityNetwork.host[24].udp packetReceived:sum(packetBytes) 0
attr interpolationmode none
attr recordingmode sum(packetBytes)
attr source packetReceived
attr title "packets received, sum(packetBytes)"
scalar dsdv25AdhocHighMobilityNetwork.host[24].udp packetSent:count 0
attr interpolationmode none
attr recordingmode count
attr source packetSent
attr title "packets sent, count"
scalar dsdv25AdhocHighMobilityNetwork.host[24].udp packetSent:sum(packetBytes) 0
attr interpolationmode none
attr recordingmode sum(packetBytes)
attr source packetSent
attr title "packets sent, sum(packetBytes)"
scalar dsdv25AdhocHighMobilityNetwork.host[24].udp passedUpPk:count 0
attr interpolationmode none
attr recordingmode count
attr source packetSentToUpper
attr title "packets passed up, count"
scalar dsdv25AdhocHighMobilityNetwork.host[24].udp droppedPkWrongPort:count 0
attr interpolationmode none
attr recordingmode count
attr source packetDropReasonIsNoPortFound(packetDropped)
attr title "packets dropped (wrong port), count"
scalar dsdv25AdhocHighMobilityNetwork.host[24].udp droppedPkBadChecksum:count 0
attr interpolationmode none
attr recordingmode count
attr source packetDropReasonIsIncorrectlyReceived(packetDropped)
attr title "packets dropped (checksum error), count"
par dsdv25AdhocHighMobilityNetwork.host[24].tcp typename "\"inet.transportlayer.tcp.Tcp\""
par dsdv25AdhocHighMobilityNetwork.host[24].tcp crcMode "\"declared\""
attr enum declared,computed
par dsdv25AdhocHighMobilityNetwork.host[24].tcp advertisedWindow 7504
par dsdv25AdhocHighMobilityNetwork.host[24].tcp delayedAcksEnabled false
par dsdv25AdhocHighMobilityNetwork.host[24].tcp nagleEnabled true
par dsdv25AdhocHighMobilityNetwork.host[24].tcp limitedTransmitEnabled false
par dsdv25AdhocHighMobilityNetwork.host[24].tcp increasedIWEnabled false
par dsdv25AdhocHighMobilityNetwork.host[24].tcp sackSupport false
par dsdv25AdhocHighMobilityNetwork.host[24].tcp windowScalingSupport false
par dsdv25AdhocHighMobilityNetwork.host[24].tcp windowScalingFactor -1
par dsdv25AdhocHighMobilityNetwork.host[24].tcp timestampSupport false
par dsdv25AdhocHighMobilityNetwork.host[24].tcp mss 536
par dsdv25AdhocHighMobilityNetwork.host[24].tcp msl 120s
attr unit s
par dsdv25AdhocHighMobilityNetwork.host[24].tcp tcpAlgorithmClass "\"TcpReno\""
par dsdv25AdhocHighMobilityNetwork.host[24].tcp useDataNotification false
par dsdv25AdhocHighMobilityNetwork.host[24].tcp dupthresh 3
par dsdv25AdhocHighMobilityNetwork.host[24].tcp initialSsthresh 4294967295
par dsdv25AdhocHighMobilityNetwork.host[24].tcp stopOperationExtraTime 0s
attr unit s
par dsdv25AdhocHighMobilityNetwork.host[24].tcp stopOperationTimeout 2s
attr unit s
par dsdv25AdhocHighMobilityNetwork.host[24].tcp ecnWillingness false
par dsdv25AdhocHighMobilityNetwork.host[24].tcp dctcpGamma 0.0625
par dsdv25AdhocHighMobilityNetwork.host[24].tn typename "\"inet.common.MessageDispatcher\""
par dsdv25AdhocHighMobilityNetwork.host[24].tn displayStringTextFormat "\"processed %p pk (%l)\""
par dsdv25AdhocHighMobilityNetwork.host[24].tn forwardServiceRegistration true
par dsdv25AdhocHighMobilityNetwork.host[24].tn forwardProtocolRegistration true
par dsdv25AdhocHighMobilityNetwork.host[24].app[0] typename "\"inet.applications.pingapp.PingApp\""
par dsdv25AdhocHighMobilityNetwork.host[24].app[0] destAddr "\"host[0,24](ipv4)\""
par dsdv25AdhocHighMobilityNetwork.host[24].app[0] srcAddr "\"\""
par dsdv25AdhocHighMobilityNetwork.host[24].app[0] packetSize 56B
attr unit B
par dsdv25AdhocHighMobilityNetwork.host[24].app[0] sendInterval "uniform(0.1s, 0.1s)"
attr unit s
par dsdv25AdhocHighMobilityNetwork.host[24].app[0] hopLimit -1
par dsdv25AdhocHighMobilityNetwork.host[24].app[0] count -1
par dsdv25AdhocHighMobilityNetwork.host[24].app[0] startTime 1s
attr unit s
par dsdv25AdhocHighMobilityNetwork.host[24].app[0] stopTime -1s
attr unit s
par dsdv25AdhocHighMobilityNetwork.host[24].app[0] sleepDuration 0s
attr unit s
par dsdv25AdhocHighMobilityNetwork.host[24].app[0] continuous false
par dsdv25AdhocHighMobilityNetwork.host[24].app[0] printPing true
par dsdv25AdhocHighMobilityNetwork.host[24].app[0] crcMode "\"declared\""
attr enum declared,computed
par dsdv25AdhocHighMobilityNetwork.host[24].app[0] networkProtocol "\"\""
par dsdv25AdhocHighMobilityNetwork.host[24].app[0] stopOperationExtraTime -1s
attr unit s
par dsdv25AdhocHighMobilityNetwork.host[24].app[0] stopOperationTimeout 2s
attr unit s
scalar dsdv25AdhocHighMobilityNetwork.host[24].app[0] "Pings sent" 1191
scalar dsdv25AdhocHighMobilityNetwork.host[24].app[0] "ping loss rate (%)" 100
scalar dsdv25AdhocHighMobilityNetwork.host[24].app[0] "ping out-of-order rate (%)" 0
scalar dsdv25AdhocHighMobilityNetwork.host[24].app[0] pingRxSeq:count 0
attr interpolationmode none
attr recordingmode count
attr title "ping rx seq, count"
scalar dsdv25AdhocHighMobilityNetwork.host[24].app[0] pingTxSeq:count 1191
attr interpolationmode none
attr recordingmode count
attr title "ping tx seq, count"
scalar dsdv25AdhocHighMobilityNetwork.host[24].app[0] numOutOfOrderArrivals:last nan
attr interpolationmode none
attr recordingmode last
attr title "ping out-of-order arrivals, last"
scalar dsdv25AdhocHighMobilityNetwork.host[24].app[0] numLost:last nan
attr interpolationmode none
attr recordingmode last
attr title "pings lost, last"
statistic dsdv25AdhocHighMobilityNetwork.host[24].app[0] rtt:histogram
field count 0
field mean nan
field stddev nan
field min nan
field max nan
field sum 0
field sqrsum 0
attr interpolationmode none
attr recordingmode histogram
attr title "ping round-trip time"
attr unit s
bin	-inf	0
bin	0	0
bin	1	0
par dsdv25AdhocHighMobilityNetwork.host[24].at typename "\"inet.common.MessageDispatcher\""
par dsdv25AdhocHighMobilityNetwork.host[24].at displayStringTextFormat "\"processed %p pk (%l)\""
par dsdv25AdhocHighMobilityNetwork.host[24].at forwardServiceRegistration true
par dsdv25AdhocHighMobilityNetwork.host[24].at forwardProtocolRegistration true
par dsdv25AdhocHighMobilityNetwork.host[24].dsdv typename "\"inet.routing.dsdv.Dsdv\""
par dsdv25AdhocHighMobilityNetwork.host[24].dsdv interfaceTableModule "\"dsdv25AdhocHighMobilityNetwork.host[24].interfaceTable\""
par dsdv25AdhocHighMobilityNetwork.host[24].dsdv routingTableModule "\"^.ipv4.routingTable\""
par dsdv25AdhocHighMobilityNetwork.host[24].dsdv helloInterval 5s
attr unit s
par dsdv25AdhocHighMobilityNetwork.host[24].dsdv netmask "\"255.255.0.0\""
par dsdv25AdhocHighMobilityNetwork.host[24].dsdv maxVariance 1
par dsdv25AdhocHighMobilityNetwork.host[24].dsdv routeLifetime 5s
attr unit s
par dsdv25AdhocHighMobilityNetwork.host[24].dsdv manetPurgeRoutingTables true
par dsdv25AdhocHighMobilityNetwork.host[24].dsdv broadcastDelay "uniform(0s, 0.01s)"
attr unit s
par dsdv25AdhocHighMobilityNetwork.host[24] typename "\"inet.node.dsdv.DsdvRouter\""
par dsdv25AdhocHighMobilityNetwork.host[24] hasStatus true
par dsdv25AdhocHighMobilityNetwork.host[24] osgModel "\"\""
par dsdv25AdhocHighMobilityNetwork.host[24] osgModelColor "\"\""
par dsdv25AdhocHighMobilityNetwork.host[24] canvasImage "\"\""
par dsdv25AdhocHighMobilityNetwork.host[24] canvasImageColor "\"\""
par dsdv25AdhocHighMobilityNetwork.host[24] recordPcap false
par dsdv25AdhocHighMobilityNetwork.host[24] numPcapRecorders 0
par dsdv25AdhocHighMobilityNetwork.host[24] numLoInterfaces 1
par dsdv25AdhocHighMobilityNetwork.host[24] numWlanInterfaces 1
par dsdv25AdhocHighMobilityNetwork.host[24] numEthInterfaces 0
par dsdv25AdhocHighMobilityNetwork.host[24] numPppInterfaces 0
par dsdv25AdhocHighMobilityNetwork.host[24] numTunInterfaces 0
par dsdv25AdhocHighMobilityNetwork.host[24] numVirtInterfaces 0
par dsdv25AdhocHighMobilityNetwork.host[24] fcsMode "\"declared\""
attr enum declared,computed
par dsdv25AdhocHighMobilityNetwork.host[24] hasIpv4 true
par dsdv25AdhocHighMobilityNetwork.host[24] hasIpv6 false
par dsdv25AdhocHighMobilityNetwork.host[24] hasGn false
par dsdv25AdhocHighMobilityNetwork.host[24] forwarding true
par dsdv25AdhocHighMobilityNetwork.host[24] multicastForwarding false
par dsdv25AdhocHighMobilityNetwork.host[24] hasUdp true
par dsdv25AdhocHighMobilityNetwork.host[24] hasTcp true
par dsdv25AdhocHighMobilityNetwork.host[24] hasSctp false
par dsdv25AdhocHighMobilityNetwork.host[24] numApps 1
par dsdv25AdhocHighMobilityNetwork typename "\"dsdv25.dsdv25AdhocHighMobilityNetwork\""

