version 3
run HighMobility-0-20250220-04:20:44-16064
attr configname HighMobility
attr datetime 20250220-04:20:44
attr datetimef 20250220-042044
attr experiment HighMobility
attr inifile omnetpp.ini
attr iterationvars ""
attr iterationvarsd ""
attr iterationvarsf ""
attr measurement ""
attr network aodv25AdhocHighMobilityNetwork
attr processid 16064
attr repetition 0
attr replication #0
attr resultdir results
attr runnumber 0
attr seedset 0
config image-path ../../inet/images
config description "Cenário de alta mobilidade"
config *.numHosts 25
config **.host[*].mobility.typename MassMobility
config **.host[*].mobility.speed "normal(5mps, 5mps)"
config **.host[*].mobility.changeInterval "uniform(1s, 1s)"
config **.host[*].mobility.angleDelta "uniform(0deg, 360deg)"
config *.host[*].numApps 1
config *.host[*].app[0].typename PingApp
config *.host[*].app[0].startTime uniform(1s,1s)
config *.host[*].app[0].sendInterval "uniform(0.1s, 0.1s)"
config *.host[*].app[0].packetLength 1024B
config *.host[*].app[0].destAddr "\"host[0,24](ipv4)\""
config *.host[*].app[0].printPing true
config **.recordEventLog true
config **.routingTableRecorder.record true
config **.networkLayer.packetDeliveryRatio.recordScalar true
config **.networkLayer.endToEndDelay.recordScalar true
config *.configurator.config "xml(\"<config> \\    <interface hosts='host[*]' address='10.0.0.1' netmask='255.255.255.0'/> \\</config>\")"
config network aodv25AdhocHighMobilityNetwork
config num-rngs 3
config **.mobility.rng-0 1
config **.wlan[*].mac.rng-0 2
config sim-time-limit 120s
config **.wlan[*].typename AckingWirelessInterface
config **.wlan[*].bitrate 10Mbps
config **.wlan[*].mac.headerLength 23B
config **.wlan[*].radio.typename UnitDiskRadio
config **.wlan[*].radio.transmitter.headerLength 96b
config **.wlan[*].radio.transmitter.communicationRange 50m
config **.wlan[*].radio.transmitter.interferenceRange 100m
config **.wlan[*].radio.transmitter.detectionRange 100m
config **.wlan[*].radio.receiver.ignoreInterference false
config **.mobility.constraintAreaMinX 0m
config **.mobility.constraintAreaMinY 0m
config **.mobility.constraintAreaMaxX 600m
config **.mobility.constraintAreaMaxY 600m
config **.mobility.constraintAreaMinZ 0m
config **.mobility.constraintAreaMaxZ 0m
config **.hasStatus true

par aodv25AdhocHighMobilityNetwork.radioMedium.propagation typename "\"inet.physicallayer.wireless.common.propagation.ConstantSpeedPropagation\""
par aodv25AdhocHighMobilityNetwork.radioMedium.propagation propagationSpeed 2.99792e+08mps
attr unit mps
par aodv25AdhocHighMobilityNetwork.radioMedium.propagation ignoreMovementDuringTransmission true
par aodv25AdhocHighMobilityNetwork.radioMedium.propagation ignoreMovementDuringPropagation true
par aodv25AdhocHighMobilityNetwork.radioMedium.propagation ignoreMovementDuringReception true
scalar aodv25AdhocHighMobilityNetwork.radioMedium.propagation "Arrival computation count" 107112
par aodv25AdhocHighMobilityNetwork.radioMedium.analogModel typename "\"inet.physicallayer.wireless.unitdisk.UnitDiskAnalogModel\""
par aodv25AdhocHighMobilityNetwork.radioMedium.pathLoss typename "\"inet.physicallayer.wireless.common.pathloss.FreeSpacePathLoss\""
par aodv25AdhocHighMobilityNetwork.radioMedium.pathLoss alpha 2
par aodv25AdhocHighMobilityNetwork.radioMedium.pathLoss systemLoss 0dB
attr unit dB
par aodv25AdhocHighMobilityNetwork.radioMedium.mediumLimitCache typename "\"inet.physicallayer.wireless.common.medium.MediumLimitCache\""
par aodv25AdhocHighMobilityNetwork.radioMedium.mediumLimitCache centerFrequency "nan Hz"
attr unit Hz
par aodv25AdhocHighMobilityNetwork.radioMedium.mediumLimitCache maxSpeed "nan mps"
attr unit mps
par aodv25AdhocHighMobilityNetwork.radioMedium.mediumLimitCache maxTransmissionPower "nan W"
attr unit W
par aodv25AdhocHighMobilityNetwork.radioMedium.mediumLimitCache minInterferencePower "nan dBm"
attr unit dBm
par aodv25AdhocHighMobilityNetwork.radioMedium.mediumLimitCache minReceptionPower "nan dBm"
attr unit dBm
par aodv25AdhocHighMobilityNetwork.radioMedium.mediumLimitCache maxAntennaGain 0dB
attr unit dB
par aodv25AdhocHighMobilityNetwork.radioMedium.mediumLimitCache minInterferenceTime 1e-12s
attr unit s
par aodv25AdhocHighMobilityNetwork.radioMedium.mediumLimitCache maxTransmissionDuration 0.01s
attr unit s
par aodv25AdhocHighMobilityNetwork.radioMedium.mediumLimitCache maxCommunicationRange "nan m"
attr unit m
par aodv25AdhocHighMobilityNetwork.radioMedium.mediumLimitCache maxInterferenceRange "nan m"
attr unit m
par aodv25AdhocHighMobilityNetwork.radioMedium.communicationCache typename "\"inet.physicallayer.wireless.common.communicationcache.VectorCommunicationCache\""
par aodv25AdhocHighMobilityNetwork.radioMedium typename "\"inet.physicallayer.wireless.unitdisk.UnitDiskRadioMedium\""
par aodv25AdhocHighMobilityNetwork.radioMedium physicalEnvironmentModule "\"physicalEnvironment\""
par aodv25AdhocHighMobilityNetwork.radioMedium signalAnalogRepresentation "\"unitDisk\""
attr enum unitDisk,scalar,dimensional
par aodv25AdhocHighMobilityNetwork.radioMedium rangeFilter "\"\""
par aodv25AdhocHighMobilityNetwork.radioMedium radioModeFilter false
par aodv25AdhocHighMobilityNetwork.radioMedium listeningFilter false
par aodv25AdhocHighMobilityNetwork.radioMedium macAddressFilter false
par aodv25AdhocHighMobilityNetwork.radioMedium recordTransmissionLog false
par aodv25AdhocHighMobilityNetwork.radioMedium recordReceptionLog false
scalar aodv25AdhocHighMobilityNetwork.radioMedium "transmission count" 4463
scalar aodv25AdhocHighMobilityNetwork.radioMedium "signal send count" 107112
scalar aodv25AdhocHighMobilityNetwork.radioMedium "reception computation count" 107112
scalar aodv25AdhocHighMobilityNetwork.radioMedium "interference computation count" 328835
scalar aodv25AdhocHighMobilityNetwork.radioMedium "reception decision computation count" 3814
scalar aodv25AdhocHighMobilityNetwork.radioMedium "listening decision computation count" 217909
scalar aodv25AdhocHighMobilityNetwork.radioMedium "reception cache hit" 79.358787334537
attr unit %
scalar aodv25AdhocHighMobilityNetwork.radioMedium "interference cache hit" 66.666666666667
attr unit %
scalar aodv25AdhocHighMobilityNetwork.radioMedium "noise cache hit" 0
attr unit %
scalar aodv25AdhocHighMobilityNetwork.radioMedium "snir cache hit" 50
attr unit %
scalar aodv25AdhocHighMobilityNetwork.radioMedium "reception decision cache hit" 50
attr unit %
scalar aodv25AdhocHighMobilityNetwork.radioMedium "reception result cache hit" 0
attr unit %
par aodv25AdhocHighMobilityNetwork.configurator typename "\"inet.networklayer.configurator.ipv4.Ipv4NetworkConfigurator\""
par aodv25AdhocHighMobilityNetwork.configurator minLinkWeight 0.001
par aodv25AdhocHighMobilityNetwork.configurator configureIsolatedNetworksSeparatly false
par aodv25AdhocHighMobilityNetwork.configurator config "<config>...</config> at content:1"
par aodv25AdhocHighMobilityNetwork.configurator assignAddresses true
par aodv25AdhocHighMobilityNetwork.configurator assignUniqueAddresses true
par aodv25AdhocHighMobilityNetwork.configurator assignDisjunctSubnetAddresses true
par aodv25AdhocHighMobilityNetwork.configurator addStaticRoutes false
par aodv25AdhocHighMobilityNetwork.configurator addDefaultRoutes false
par aodv25AdhocHighMobilityNetwork.configurator addSubnetRoutes false
par aodv25AdhocHighMobilityNetwork.configurator addDirectRoutes true
par aodv25AdhocHighMobilityNetwork.configurator optimizeRoutes true
par aodv25AdhocHighMobilityNetwork.configurator dumpTopology false
par aodv25AdhocHighMobilityNetwork.configurator dumpLinks false
par aodv25AdhocHighMobilityNetwork.configurator dumpAddresses false
par aodv25AdhocHighMobilityNetwork.configurator dumpRoutes false
par aodv25AdhocHighMobilityNetwork.configurator dumpConfig "\"\""
par aodv25AdhocHighMobilityNetwork.routingTableRecorder typename "\"inet.networklayer.ipv4.RoutingTableRecorder\""
par aodv25AdhocHighMobilityNetwork.routingTableRecorder enabled true
par aodv25AdhocHighMobilityNetwork.scenarioManager typename "\"inet.common.scenario.ScenarioManager\""
par aodv25AdhocHighMobilityNetwork.scenarioManager script "<scenario/> at content:1"
par aodv25AdhocHighMobilityNetwork.host[0].radioIn[0].channel typename "\"ned.IdealChannel\""
par aodv25AdhocHighMobilityNetwork.host[0].status typename "\"inet.common.lifecycle.NodeStatus\""
par aodv25AdhocHighMobilityNetwork.host[0].status initialStatus "\"UP\""
par aodv25AdhocHighMobilityNetwork.host[0].mobility typename "\"inet.mobility.single.MassMobility\""
par aodv25AdhocHighMobilityNetwork.host[0].mobility subjectModule "\"^\""
par aodv25AdhocHighMobilityNetwork.host[0].mobility coordinateSystemModule "\"\""
par aodv25AdhocHighMobilityNetwork.host[0].mobility displayStringTextFormat "\"p: %p\\nv: %v\""
attr mutable ""
par aodv25AdhocHighMobilityNetwork.host[0].mobility updateDisplayString true
par aodv25AdhocHighMobilityNetwork.host[0].mobility constraintAreaMinX 0m
attr unit m
par aodv25AdhocHighMobilityNetwork.host[0].mobility constraintAreaMinY 0m
attr unit m
par aodv25AdhocHighMobilityNetwork.host[0].mobility constraintAreaMinZ 0m
attr unit m
par aodv25AdhocHighMobilityNetwork.host[0].mobility constraintAreaMaxX 600m
attr unit m
par aodv25AdhocHighMobilityNetwork.host[0].mobility constraintAreaMaxY 600m
attr unit m
par aodv25AdhocHighMobilityNetwork.host[0].mobility constraintAreaMaxZ 0m
attr unit m
par aodv25AdhocHighMobilityNetwork.host[0].mobility updateInterval 0.1s
attr unit s
par aodv25AdhocHighMobilityNetwork.host[0].mobility faceForward true
par aodv25AdhocHighMobilityNetwork.host[0].mobility initialX 250.213m
attr unit m
par aodv25AdhocHighMobilityNetwork.host[0].mobility initialY 598.311m
attr unit m
par aodv25AdhocHighMobilityNetwork.host[0].mobility initialZ 0m
attr unit m
par aodv25AdhocHighMobilityNetwork.host[0].mobility initialMovementHeading 335.721deg
attr unit deg
par aodv25AdhocHighMobilityNetwork.host[0].mobility initialMovementElevation 0deg
attr unit deg
par aodv25AdhocHighMobilityNetwork.host[0].mobility initFromDisplayString true
par aodv25AdhocHighMobilityNetwork.host[0].mobility changeInterval "uniform(1s, 1s)"
attr unit s
par aodv25AdhocHighMobilityNetwork.host[0].mobility angleDelta "uniform(0deg, 360deg)"
attr unit deg
par aodv25AdhocHighMobilityNetwork.host[0].mobility rotationAxisAngle 0deg
attr unit deg
par aodv25AdhocHighMobilityNetwork.host[0].mobility speed "normal(5mps, 5mps)"
attr mutable ""
attr unit mps
par aodv25AdhocHighMobilityNetwork.host[0].interfaceTable typename "\"inet.networklayer.common.InterfaceTable\""
par aodv25AdhocHighMobilityNetwork.host[0].interfaceTable displayAddresses false
par aodv25AdhocHighMobilityNetwork.host[0].cb typename "\"inet.common.MessageDispatcher\""
par aodv25AdhocHighMobilityNetwork.host[0].cb displayStringTextFormat "\"processed %p pk (%l)\""
par aodv25AdhocHighMobilityNetwork.host[0].cb forwardServiceRegistration true
par aodv25AdhocHighMobilityNetwork.host[0].cb forwardProtocolRegistration true
par aodv25AdhocHighMobilityNetwork.host[0].bl typename "\"inet.common.MessageDispatcher\""
par aodv25AdhocHighMobilityNetwork.host[0].bl displayStringTextFormat "\"processed %p pk (%l)\""
par aodv25AdhocHighMobilityNetwork.host[0].bl forwardServiceRegistration true
par aodv25AdhocHighMobilityNetwork.host[0].bl forwardProtocolRegistration true
par aodv25AdhocHighMobilityNetwork.host[0].li typename "\"inet.common.MessageDispatcher\""
par aodv25AdhocHighMobilityNetwork.host[0].li displayStringTextFormat "\"processed %p pk (%l)\""
par aodv25AdhocHighMobilityNetwork.host[0].li forwardServiceRegistration true
par aodv25AdhocHighMobilityNetwork.host[0].li forwardProtocolRegistration true
par aodv25AdhocHighMobilityNetwork.host[0].lo[0].upperLayerIn.channel typename "\"ned.IdealChannel\""
par aodv25AdhocHighMobilityNetwork.host[0].lo[0].lo.upperLayerOut.channel typename "\"ned.IdealChannel\""
par aodv25AdhocHighMobilityNetwork.host[0].lo[0].lo typename "\"inet.linklayer.loopback.Loopback\""
par aodv25AdhocHighMobilityNetwork.host[0].lo[0].lo interfaceTableModule "\"aodv25AdhocHighMobilityNetwork.host[0].interfaceTable\""
par aodv25AdhocHighMobilityNetwork.host[0].lo[0].lo mtu 4470B
attr unit B
scalar aodv25AdhocHighMobilityNetwork.host[0].lo[0].lo rcvdPkFromHl:count 2382
attr interpolationmode none
attr recordingmode count
attr source packetReceivedFromUpper
attr title "packets received from higher layer, count"
scalar aodv25AdhocHighMobilityNetwork.host[0].lo[0].lo rcvdPkFromHl:sum(packetBytes) 200088
attr interpolationmode none
attr recordingmode sum(packetBytes)
attr source packetReceivedFromUpper
attr title "packets received from higher layer, sum(packetBytes)"
scalar aodv25AdhocHighMobilityNetwork.host[0].lo[0].lo passedUpPk:count 2382
attr interpolationmode none
attr recordingmode count
attr source packetSentToUpper
attr title "packets passed to higher layer, count"
scalar aodv25AdhocHighMobilityNetwork.host[0].lo[0].lo passedUpPk:sum(packetBytes) 200088
attr interpolationmode none
attr recordingmode sum(packetBytes)
attr source packetSentToUpper
attr title "packets passed to higher layer, sum(packetBytes)"
par aodv25AdhocHighMobilityNetwork.host[0].lo[0] typename "\"inet.linklayer.loopback.LoopbackInterface\""
par aodv25AdhocHighMobilityNetwork.host[0].lo[0] displayStringTextFormat "\"%a (%i)\\n%m\""
par aodv25AdhocHighMobilityNetwork.host[0].lo[0] recordPcap false
par aodv25AdhocHighMobilityNetwork.host[0].lo[0] numPcapRecorders 0
par aodv25AdhocHighMobilityNetwork.host[0].lo[0] interfaceTableModule "\"aodv25AdhocHighMobilityNetwork.host[0].interfaceTable\""
scalar aodv25AdhocHighMobilityNetwork.host[0].lo[0] packetDropInterfaceDown:count 0
attr interpolationmode none
attr recordingmode count
attr source packetDropReasonIsInterfaceDown(packetDropped)
attr title "packet drops: interface down, count"
scalar aodv25AdhocHighMobilityNetwork.host[0].lo[0] packetDropInterfaceDown:sum(packetBytes) 0
attr interpolationmode none
attr recordingmode sum(packetBytes)
attr source packetDropReasonIsInterfaceDown(packetDropped)
attr title "packet drops: interface down, sum(packetBytes)"
scalar aodv25AdhocHighMobilityNetwork.host[0].lo[0] packetDropNoCarrier:count 0
attr interpolationmode none
attr recordingmode count
attr source packetDropReasonIsNoCarrier(packetDropped)
attr title "packet drops: no carrier, count"
scalar aodv25AdhocHighMobilityNetwork.host[0].lo[0] packetDropNoCarrier:sum(packetBytes) 0
attr interpolationmode none
attr recordingmode sum(packetBytes)
attr source packetDropReasonIsNoCarrier(packetDropped)
attr title "packet drops: no carrier, sum(packetBytes)"
par aodv25AdhocHighMobilityNetwork.host[0].wlan[0].upperLayerIn.channel typename "\"ned.IdealChannel\""
par aodv25AdhocHighMobilityNetwork.host[0].wlan[0].radioIn.channel typename "\"ned.IdealChannel\""
par aodv25AdhocHighMobilityNetwork.host[0].wlan[0].mac.upperLayerOut.channel typename "\"ned.IdealChannel\""
par aodv25AdhocHighMobilityNetwork.host[0].wlan[0].queue typename "\"inet.queueing.queue.DropTailQueue\""
par aodv25AdhocHighMobilityNetwork.host[0].wlan[0].queue displayStringTextFormat "\"contains %p pk (%l) pushed %u\\npulled %o removed %r dropped %d\""
par aodv25AdhocHighMobilityNetwork.host[0].wlan[0].queue packetCapacity 100
par aodv25AdhocHighMobilityNetwork.host[0].wlan[0].queue dataCapacity -1b
attr unit b
par aodv25AdhocHighMobilityNetwork.host[0].wlan[0].queue dropperClass "\"inet::queueing::PacketAtCollectionEndDropper\""
par aodv25AdhocHighMobilityNetwork.host[0].wlan[0].queue comparatorClass "\"\""
par aodv25AdhocHighMobilityNetwork.host[0].wlan[0].queue bufferModule "\"\""
scalar aodv25AdhocHighMobilityNetwork.host[0].wlan[0].queue queueLength:last 0
attr autoWarmupFilter false
attr interpolationmode sample-hold
attr recordingmode last
attr source "warmup(atomic(constant0(packetPushEnded) + count(packetPushStarted) - count(packetPulled) - count(packetRemoved) - count(packetDropped)))"
attr title "queue length, last"
attr unit pk
scalar aodv25AdhocHighMobilityNetwork.host[0].wlan[0].queue queueLength:max 35
attr autoWarmupFilter false
attr interpolationmode sample-hold
attr recordingmode max
attr source "warmup(atomic(constant0(packetPushEnded) + count(packetPushStarted) - count(packetPulled) - count(packetRemoved) - count(packetDropped)))"
attr title "queue length, max"
attr unit pk
scalar aodv25AdhocHighMobilityNetwork.host[0].wlan[0].queue queueLength:timeavg 0.028955254102267
attr autoWarmupFilter false
attr interpolationmode sample-hold
attr recordingmode timeavg
attr source "warmup(atomic(constant0(packetPushEnded) + count(packetPushStarted) - count(packetPulled) - count(packetRemoved) - count(packetDropped)))"
attr title "queue length, timeavg"
attr unit pk
scalar aodv25AdhocHighMobilityNetwork.host[0].wlan[0].queue queueBitLength:last 0
attr autoWarmupFilter false
attr interpolationmode sample-hold
attr recordingmode last
attr source "warmup(atomic(constant0(packetPushEnded) + sum(packetLength(packetPushStarted)) - sum(packetLength(packetPulled)) - sum(packetLength(packetRemoved)) - sum(packetLength(packetDropped))))"
attr title "queue bit length, last"
attr unit b
scalar aodv25AdhocHighMobilityNetwork.host[0].wlan[0].queue queueBitLength:max 23520
attr autoWarmupFilter false
attr interpolationmode sample-hold
attr recordingmode max
attr source "warmup(atomic(constant0(packetPushEnded) + sum(packetLength(packetPushStarted)) - sum(packetLength(packetPulled)) - sum(packetLength(packetRemoved)) - sum(packetLength(packetDropped))))"
attr title "queue bit length, max"
attr unit b
scalar aodv25AdhocHighMobilityNetwork.host[0].wlan[0].queue queueBitLength:timeavg 19.457930367186
attr autoWarmupFilter false
attr interpolationmode sample-hold
attr recordingmode timeavg
attr source "warmup(atomic(constant0(packetPushEnded) + sum(packetLength(packetPushStarted)) - sum(packetLength(packetPulled)) - sum(packetLength(packetRemoved)) - sum(packetLength(packetDropped))))"
attr title "queue bit length, timeavg"
attr unit b
statistic aodv25AdhocHighMobilityNetwork.host[0].wlan[0].queue queueingTime:histogram
field count 909
field mean 0.0038224757890781
field stddev 0.019083776898571
field min 0
field max 0.099904688761
field sum 3.474630492272
field sqrsum 0.34396670190139
attr interpolationmode none
attr recordingmode histogram
attr source queueingTime(packetPulled)
attr title "queueing times"
attr unit s
bin	-inf	0
bin	0	874
bin	0.002	0
bin	0.004	0
bin	0.006	0
bin	0.008	0
bin	0.01	0
bin	0.012	0
bin	0.014	0
bin	0.016	0
bin	0.018	0
bin	0.02	0
bin	0.022	0
bin	0.024	0
bin	0.026	0
bin	0.028	0
bin	0.03	0
bin	0.032	0
bin	0.034	0
bin	0.036	0
bin	0.038	0
bin	0.04	0
bin	0.042	0
bin	0.044	0
bin	0.046	0
bin	0.048	0
bin	0.05	0
bin	0.052	0
bin	0.054	0
bin	0.056	0
bin	0.058	0
bin	0.06	0
bin	0.062	0
bin	0.064	0
bin	0.066	1
bin	0.068	0
bin	0.07	0
bin	0.072	0
bin	0.074	0
bin	0.076	0
bin	0.078	0
bin	0.08	0
bin	0.082	0
bin	0.084	0
bin	0.086	0
bin	0.088	0
bin	0.09	0
bin	0.092	0
bin	0.094	0
bin	0.096	0
bin	0.098	34
bin	0.1	0
bin	0.102	0
bin	0.104	0
bin	0.106	0
bin	0.108	0
bin	0.11	0
bin	0.112	0
bin	0.114	0
bin	0.116	0
bin	0.118	0
bin	0.12	0
bin	0.122	0
bin	0.124	0
bin	0.126	0
scalar aodv25AdhocHighMobilityNetwork.host[0].wlan[0].queue outgoingPackets:count 909
attr recordingmode count
attr source packetPulled
attr title "outgoing packets, count"
attr unit pk
scalar aodv25AdhocHighMobilityNetwork.host[0].wlan[0].queue outgoingPacketLengths:sum 604800
attr interpolationmode none
attr recordingmode sum
attr source packetLength(packetPulled)
attr title "outgoing packet lengths, sum"
attr unit b
statistic aodv25AdhocHighMobilityNetwork.host[0].wlan[0].queue outgoingPacketLengths:histogram
field count 909
field mean 665.34653465347
field stddev 43.678640249892
field min 224
field max 672
field sum 604800
field sqrsum 404133888
attr interpolationmode none
attr recordingmode histogram
attr source packetLength(packetPulled)
attr title "outgoing packet lengths"
attr unit b
bin	-inf	0
bin	110	0
bin	120	0
bin	130	0
bin	140	0
bin	150	0
bin	160	0
bin	170	0
bin	180	0
bin	190	0
bin	200	0
bin	210	0
bin	220	1
bin	230	0
bin	240	0
bin	250	0
bin	260	0
bin	270	0
bin	280	0
bin	290	0
bin	300	0
bin	310	0
bin	320	0
bin	330	0
bin	340	0
bin	350	0
bin	360	0
bin	370	0
bin	380	15
bin	390	0
bin	400	0
bin	410	5
bin	420	0
bin	430	0
bin	440	0
bin	450	0
bin	460	0
bin	470	0
bin	480	0
bin	490	0
bin	500	0
bin	510	0
bin	520	0
bin	530	0
bin	540	0
bin	550	0
bin	560	0
bin	570	0
bin	580	0
bin	590	0
bin	600	0
bin	610	0
bin	620	0
bin	630	0
bin	640	0
bin	650	0
bin	660	0
bin	670	888
bin	680	0
bin	690	0
bin	700	0
bin	710	0
bin	720	0
bin	730	0
bin	740	0
bin	750	0
bin	760	0
bin	770	0
bin	780	0
bin	790	0
statistic aodv25AdhocHighMobilityNetwork.host[0].wlan[0].queue flowQueueingTime:histogram
field count 0
field mean nan
field stddev nan
field min nan
field max nan
field sum 0
field sqrsum 0
attr interpolationmode none
attr recordingmode histogram
attr source queueingTime(demuxFlow(packetPulled))
attr title "flow queueing times"
attr unit s
bin	-inf	0
bin	0	0
bin	1	0
scalar aodv25AdhocHighMobilityNetwork.host[0].wlan[0].queue incomingPackets:count 909
attr recordingmode count
attr source packetPushStarted
attr title "incoming packets, count"
attr unit pk
scalar aodv25AdhocHighMobilityNetwork.host[0].wlan[0].queue incomingPacketLengths:sum 604800
attr interpolationmode none
attr recordingmode sum
attr source packetLength(packetPushStarted)
attr title "incoming packet lengths, sum"
attr unit b
statistic aodv25AdhocHighMobilityNetwork.host[0].wlan[0].queue incomingPacketLengths:histogram
field count 909
field mean 665.34653465347
field stddev 43.678640249892
field min 224
field max 672
field sum 604800
field sqrsum 404133888
attr interpolationmode none
attr recordingmode histogram
attr source packetLength(packetPushStarted)
attr title "incoming packet lengths"
attr unit b
bin	-inf	0
bin	110	0
bin	120	0
bin	130	0
bin	140	0
bin	150	0
bin	160	0
bin	170	0
bin	180	0
bin	190	0
bin	200	0
bin	210	0
bin	220	1
bin	230	0
bin	240	0
bin	250	0
bin	260	0
bin	270	0
bin	280	0
bin	290	0
bin	300	0
bin	310	0
bin	320	0
bin	330	0
bin	340	0
bin	350	0
bin	360	0
bin	370	0
bin	380	15
bin	390	0
bin	400	0
bin	410	5
bin	420	0
bin	430	0
bin	440	0
bin	450	0
bin	460	0
bin	470	0
bin	480	0
bin	490	0
bin	500	0
bin	510	0
bin	520	0
bin	530	0
bin	540	0
bin	550	0
bin	560	0
bin	570	0
bin	580	0
bin	590	0
bin	600	0
bin	610	0
bin	620	0
bin	630	0
bin	640	0
bin	650	0
bin	660	0
bin	670	888
bin	680	0
bin	690	0
bin	700	0
bin	710	0
bin	720	0
bin	730	0
bin	740	0
bin	750	0
bin	760	0
bin	770	0
bin	780	0
bin	790	0
scalar aodv25AdhocHighMobilityNetwork.host[0].wlan[0].queue droppedPacketsQueueOverflow:count 0
attr interpolationmode none
attr recordingmode count
attr source packetDropReasonIsQueueOverflow(packetDropped)
attr title "dropped packets: queue overflow, count"
attr unit pk
scalar aodv25AdhocHighMobilityNetwork.host[0].wlan[0].queue droppedPacketLengthsQueueOverflow:sum 0
attr interpolationmode none
attr recordingmode sum
attr source packetLength(packetDropReasonIsQueueOverflow(packetDropped))
attr title "dropped packet lengths: queue overflow, sum"
attr unit b
par aodv25AdhocHighMobilityNetwork.host[0].wlan[0].mac typename "\"inet.linklayer.acking.AckingMac\""
par aodv25AdhocHighMobilityNetwork.host[0].wlan[0].mac interfaceTableModule "\"aodv25AdhocHighMobilityNetwork.host[0].interfaceTable\""
par aodv25AdhocHighMobilityNetwork.host[0].wlan[0].mac address "\"auto\""
attr mutable ""
par aodv25AdhocHighMobilityNetwork.host[0].wlan[0].mac bitrate 1e+07bps
attr unit bps
par aodv25AdhocHighMobilityNetwork.host[0].wlan[0].mac mtu 4470B
attr unit B
par aodv25AdhocHighMobilityNetwork.host[0].wlan[0].mac headerLength 23B
attr unit B
par aodv25AdhocHighMobilityNetwork.host[0].wlan[0].mac promiscuous false
par aodv25AdhocHighMobilityNetwork.host[0].wlan[0].mac fullDuplex true
par aodv25AdhocHighMobilityNetwork.host[0].wlan[0].mac useAck true
par aodv25AdhocHighMobilityNetwork.host[0].wlan[0].mac ackTimeout 0.1s
attr unit s
scalar aodv25AdhocHighMobilityNetwork.host[0].wlan[0].mac rcvdPkFromLl:count 1044
attr interpolationmode none
attr recordingmode count
attr source packetReceivedFromLower
attr title "packets received from lower layer, count"
scalar aodv25AdhocHighMobilityNetwork.host[0].wlan[0].mac rcvdPkFromLl:sum(packetBytes) 110256
attr interpolationmode none
attr recordingmode sum(packetBytes)
attr source packetReceivedFromLower
attr title "packets received from lower layer, sum(packetBytes)"
scalar aodv25AdhocHighMobilityNetwork.host[0].wlan[0].mac sentDownPk:count 909
attr interpolationmode none
attr recordingmode count
attr source packetSentToLower
attr title "packets sent to lower layer, count"
scalar aodv25AdhocHighMobilityNetwork.host[0].wlan[0].mac sentDownPk:sum(packetBytes) 96507
attr interpolationmode none
attr recordingmode sum(packetBytes)
attr source packetSentToLower
attr title "packets sent to lower layer, sum(packetBytes)"
scalar aodv25AdhocHighMobilityNetwork.host[0].wlan[0].mac rcvdPkFromHl:count 909
attr interpolationmode none
attr recordingmode count
attr source packetReceivedFromUpper
attr title "packets received from higher layer, count"
scalar aodv25AdhocHighMobilityNetwork.host[0].wlan[0].mac rcvdPkFromHl:sum(packetBytes) 75600
attr interpolationmode none
attr recordingmode sum(packetBytes)
attr source packetReceivedFromUpper
attr title "packets received from higher layer, sum(packetBytes)"
scalar aodv25AdhocHighMobilityNetwork.host[0].wlan[0].mac passedUpPk:count 917
attr interpolationmode none
attr recordingmode count
attr source packetSentToUpper
attr title "packets passed to higher layer, count"
scalar aodv25AdhocHighMobilityNetwork.host[0].wlan[0].mac passedUpPk:sum(packetBytes) 76008
attr interpolationmode none
attr recordingmode sum(packetBytes)
attr source packetSentToUpper
attr title "packets passed to higher layer, sum(packetBytes)"
scalar aodv25AdhocHighMobilityNetwork.host[0].wlan[0].mac packetDropIncorrectlyReceived:count 15
attr interpolationmode none
attr recordingmode count
attr source packetDropReasonIsIncorrectlyReceived(packetDropped)
attr title "packet drop: incorrectly received, count"
scalar aodv25AdhocHighMobilityNetwork.host[0].wlan[0].mac packetDropIncorrectlyReceived:sum(packetBytes) 1461
attr interpolationmode none
attr recordingmode sum(packetBytes)
attr source packetDropReasonIsIncorrectlyReceived(packetDropped)
attr title "packet drop: incorrectly received, sum(packetBytes)"
scalar aodv25AdhocHighMobilityNetwork.host[0].wlan[0].mac packetDropInterfaceDown:count 0
attr interpolationmode none
attr recordingmode count
attr source packetDropReasonIsInterfaceDown(packetDropped)
attr title "packet drop: interface down, count"
scalar aodv25AdhocHighMobilityNetwork.host[0].wlan[0].mac packetDropInterfaceDown:sum(packetBytes) 0
attr interpolationmode none
attr recordingmode sum(packetBytes)
attr source packetDropReasonIsInterfaceDown(packetDropped)
attr title "packet drop: interface down, sum(packetBytes)"
scalar aodv25AdhocHighMobilityNetwork.host[0].wlan[0].mac packetDropNotAddressedToUs:count 112
attr interpolationmode none
attr recordingmode count
attr source packetDropReasonIsNotAddressedToUs(packetDropped)
attr title "packet drop: not addressed to us, count"
scalar aodv25AdhocHighMobilityNetwork.host[0].wlan[0].mac packetDropNotAddressedToUs:sum(packetBytes) 11696
attr interpolationmode none
attr recordingmode sum(packetBytes)
attr source packetDropReasonIsNotAddressedToUs(packetDropped)
attr title "packet drop: not addressed to us, sum(packetBytes)"
scalar aodv25AdhocHighMobilityNetwork.host[0].wlan[0].mac linkBroken:count 1
attr interpolationmode none
attr recordingmode count
attr source linkBroken
attr title "link break, count"
par aodv25AdhocHighMobilityNetwork.host[0].wlan[0].radio.antenna typename "\"inet.physicallayer.wireless.common.antenna.IsotropicAntenna\""
par aodv25AdhocHighMobilityNetwork.host[0].wlan[0].radio.antenna mobilityModule "\"^.^.^.mobility\""
par aodv25AdhocHighMobilityNetwork.host[0].wlan[0].radio.antenna numAntennas 1
par aodv25AdhocHighMobilityNetwork.host[0].wlan[0].radio.transmitter typename "\"inet.physicallayer.wireless.unitdisk.UnitDiskTransmitter\""
par aodv25AdhocHighMobilityNetwork.host[0].wlan[0].radio.transmitter preambleDuration 0s
attr unit s
par aodv25AdhocHighMobilityNetwork.host[0].wlan[0].radio.transmitter headerLength 96b
attr unit b
par aodv25AdhocHighMobilityNetwork.host[0].wlan[0].radio.transmitter bitrate 1e+07bps
attr unit bps
par aodv25AdhocHighMobilityNetwork.host[0].wlan[0].radio.transmitter communicationRange 50m
attr unit m
par aodv25AdhocHighMobilityNetwork.host[0].wlan[0].radio.transmitter interferenceRange 100m
attr unit m
par aodv25AdhocHighMobilityNetwork.host[0].wlan[0].radio.transmitter detectionRange 100m
attr unit m
par aodv25AdhocHighMobilityNetwork.host[0].wlan[0].radio.receiver typename "\"inet.physicallayer.wireless.unitdisk.UnitDiskReceiver\""
par aodv25AdhocHighMobilityNetwork.host[0].wlan[0].radio.receiver ignoreInterference false
par aodv25AdhocHighMobilityNetwork.host[0].wlan[0].radio typename "\"inet.physicallayer.wireless.unitdisk.UnitDiskRadio\""
par aodv25AdhocHighMobilityNetwork.host[0].wlan[0].radio radioMediumModule "\"radioMedium\""
par aodv25AdhocHighMobilityNetwork.host[0].wlan[0].radio energySourceModule "\"\""
par aodv25AdhocHighMobilityNetwork.host[0].wlan[0].radio initialRadioMode "\"off\""
attr enum off,sleep,receiver,transmitter,transceiver
par aodv25AdhocHighMobilityNetwork.host[0].wlan[0].radio switchingTimes "\"ms 0 0 0 0 0 0 0 0 0 0 0 0 0 0 0 0 0 0 0 0 0 0 0 0 0\""
par aodv25AdhocHighMobilityNetwork.host[0].wlan[0].radio sendRawBytes false
par aodv25AdhocHighMobilityNetwork.host[0].wlan[0].radio separateTransmissionParts false
par aodv25AdhocHighMobilityNetwork.host[0].wlan[0].radio separateReceptionParts false
par aodv25AdhocHighMobilityNetwork.host[0].wlan[0].radio displayCommunicationRange false
par aodv25AdhocHighMobilityNetwork.host[0].wlan[0].radio displayInterferenceRange false
statistic aodv25AdhocHighMobilityNetwork.host[0].wlan[0].radio minSnir:histogram
field count 0
field mean nan
field stddev nan
field min nan
field max nan
field sum 0
field sqrsum 0
attr recordingmode histogram
attr source minimumSnir(packetSentToUpper)
attr title "Min SNIR"
bin	-inf	0
bin	0	0
bin	1	0
statistic aodv25AdhocHighMobilityNetwork.host[0].wlan[0].radio packetErrorRate:histogram
field count 1044
field mean 0.014367816091954
field stddev 0.11905863891426
field min 0
field max 1
field sum 15
field sqrsum 15
attr recordingmode histogram
attr source packetErrorRate(packetSentToUpper)
attr title "Packet error rate"
bin	-inf	0
bin	-0.5	0
bin	-0.48	0
bin	-0.46	0
bin	-0.44	0
bin	-0.42	0
bin	-0.4	0
bin	-0.38	0
bin	-0.36	0
bin	-0.34	0
bin	-0.32	0
bin	-0.3	0
bin	-0.28	0
bin	-0.26	0
bin	-0.24	0
bin	-0.22	0
bin	-0.2	0
bin	-0.18	0
bin	-0.16	0
bin	-0.14	0
bin	-0.12	0
bin	-0.1	0
bin	-0.08	0
bin	-0.06	0
bin	-0.04	0
bin	-0.02	0
bin	0	1029
bin	0.02	0
bin	0.04	0
bin	0.06	0
bin	0.08	0
bin	0.1	0
bin	0.12	0
bin	0.14	0
bin	0.16	0
bin	0.18	0
bin	0.2	0
bin	0.22	0
bin	0.24	0
bin	0.26	0
bin	0.28	0
bin	0.3	0
bin	0.32	0
bin	0.34	0
bin	0.36	0
bin	0.38	0
bin	0.4	0
bin	0.42	0
bin	0.44	0
bin	0.46	0
bin	0.48	0
bin	0.5	0
bin	0.52	0
bin	0.54	0
bin	0.56	0
bin	0.58	0
bin	0.6	0
bin	0.62	0
bin	0.64	0
bin	0.66	0
bin	0.68	0
bin	0.7	0
bin	0.72	0
bin	0.74	0
bin	0.76	0
bin	0.78	0
bin	0.8	0
bin	0.82	0
bin	0.84	0
bin	0.86	0
bin	0.88	0
bin	0.9	0
bin	0.92	0
bin	0.94	0
bin	0.96	0
bin	0.98	0
bin	1	15
bin	1.02	0
statistic aodv25AdhocHighMobilityNetwork.host[0].wlan[0].radio bitErrorRate:histogram
field count 1044
field mean 0.014367816091954
field stddev 0.11905863891426
field min 0
field max 1
field sum 15
field sqrsum 15
attr recordingmode histogram
attr source bitErrorRate(packetSentToUpper)
attr title "Bit error rate"
bin	-inf	0
bin	-0.5	0
bin	-0.48	0
bin	-0.46	0
bin	-0.44	0
bin	-0.42	0
bin	-0.4	0
bin	-0.38	0
bin	-0.36	0
bin	-0.34	0
bin	-0.32	0
bin	-0.3	0
bin	-0.28	0
bin	-0.26	0
bin	-0.24	0
bin	-0.22	0
bin	-0.2	0
bin	-0.18	0
bin	-0.16	0
bin	-0.14	0
bin	-0.12	0
bin	-0.1	0
bin	-0.08	0
bin	-0.06	0
bin	-0.04	0
bin	-0.02	0
bin	0	1029
bin	0.02	0
bin	0.04	0
bin	0.06	0
bin	0.08	0
bin	0.1	0
bin	0.12	0
bin	0.14	0
bin	0.16	0
bin	0.18	0
bin	0.2	0
bin	0.22	0
bin	0.24	0
bin	0.26	0
bin	0.28	0
bin	0.3	0
bin	0.32	0
bin	0.34	0
bin	0.36	0
bin	0.38	0
bin	0.4	0
bin	0.42	0
bin	0.44	0
bin	0.46	0
bin	0.48	0
bin	0.5	0
bin	0.52	0
bin	0.54	0
bin	0.56	0
bin	0.58	0
bin	0.6	0
bin	0.62	0
bin	0.64	0
bin	0.66	0
bin	0.68	0
bin	0.7	0
bin	0.72	0
bin	0.74	0
bin	0.76	0
bin	0.78	0
bin	0.8	0
bin	0.82	0
bin	0.84	0
bin	0.86	0
bin	0.88	0
bin	0.9	0
bin	0.92	0
bin	0.94	0
bin	0.96	0
bin	0.98	0
bin	1	15
bin	1.02	0
statistic aodv25AdhocHighMobilityNetwork.host[0].wlan[0].radio symbolErrorRate:histogram
field count 1044
field mean 0.014367816091954
field stddev 0.11905863891426
field min 0
field max 1
field sum 15
field sqrsum 15
attr recordingmode histogram
attr source symbolErrorRate(packetSentToUpper)
attr title "Symbol error rate"
bin	-inf	0
bin	-0.5	0
bin	-0.48	0
bin	-0.46	0
bin	-0.44	0
bin	-0.42	0
bin	-0.4	0
bin	-0.38	0
bin	-0.36	0
bin	-0.34	0
bin	-0.32	0
bin	-0.3	0
bin	-0.28	0
bin	-0.26	0
bin	-0.24	0
bin	-0.22	0
bin	-0.2	0
bin	-0.18	0
bin	-0.16	0
bin	-0.14	0
bin	-0.12	0
bin	-0.1	0
bin	-0.08	0
bin	-0.06	0
bin	-0.04	0
bin	-0.02	0
bin	0	1029
bin	0.02	0
bin	0.04	0
bin	0.06	0
bin	0.08	0
bin	0.1	0
bin	0.12	0
bin	0.14	0
bin	0.16	0
bin	0.18	0
bin	0.2	0
bin	0.22	0
bin	0.24	0
bin	0.26	0
bin	0.28	0
bin	0.3	0
bin	0.32	0
bin	0.34	0
bin	0.36	0
bin	0.38	0
bin	0.4	0
bin	0.42	0
bin	0.44	0
bin	0.46	0
bin	0.48	0
bin	0.5	0
bin	0.52	0
bin	0.54	0
bin	0.56	0
bin	0.58	0
bin	0.6	0
bin	0.62	0
bin	0.64	0
bin	0.66	0
bin	0.68	0
bin	0.7	0
bin	0.72	0
bin	0.74	0
bin	0.76	0
bin	0.78	0
bin	0.8	0
bin	0.82	0
bin	0.84	0
bin	0.86	0
bin	0.88	0
bin	0.9	0
bin	0.92	0
bin	0.94	0
bin	0.96	0
bin	0.98	0
bin	1	15
bin	1.02	0
scalar aodv25AdhocHighMobilityNetwork.host[0].wlan[0].radio transmissionState:count 1819
attr interpolationmode sample-hold
attr recordingmode count
attr source transmissionStateChanged
attr title "Radio transmission state, count"
scalar aodv25AdhocHighMobilityNetwork.host[0].wlan[0].radio receptionState:count 2550
attr interpolationmode sample-hold
attr recordingmode count
attr source receptionStateChanged
attr title "Radio reception state, count"
scalar aodv25AdhocHighMobilityNetwork.host[0].wlan[0].radio radioMode:count 3
attr interpolationmode sample-hold
attr recordingmode count
attr source radioModeChanged
attr title "Radio mode, count"
par aodv25AdhocHighMobilityNetwork.host[0].wlan[0] typename "\"inet.linklayer.acking.AckingWirelessInterface\""
par aodv25AdhocHighMobilityNetwork.host[0].wlan[0] displayStringTextFormat "\"%a (%i)\\n%m\""
par aodv25AdhocHighMobilityNetwork.host[0].wlan[0] recordPcap false
par aodv25AdhocHighMobilityNetwork.host[0].wlan[0] numPcapRecorders 0
par aodv25AdhocHighMobilityNetwork.host[0].wlan[0] interfaceTableModule "\"aodv25AdhocHighMobilityNetwork.host[0].interfaceTable\""
par aodv25AdhocHighMobilityNetwork.host[0].wlan[0] energySourceModule "\"\""
par aodv25AdhocHighMobilityNetwork.host[0].wlan[0] bitrate 1e+07bps
attr unit bps
scalar aodv25AdhocHighMobilityNetwork.host[0].wlan[0] packetDropInterfaceDown:count 0
attr interpolationmode none
attr recordingmode count
attr source packetDropReasonIsInterfaceDown(packetDropped)
attr title "packet drops: interface down, count"
scalar aodv25AdhocHighMobilityNetwork.host[0].wlan[0] packetDropInterfaceDown:sum(packetBytes) 0
attr interpolationmode none
attr recordingmode sum(packetBytes)
attr source packetDropReasonIsInterfaceDown(packetDropped)
attr title "packet drops: interface down, sum(packetBytes)"
scalar aodv25AdhocHighMobilityNetwork.host[0].wlan[0] packetDropNoCarrier:count 0
attr interpolationmode none
attr recordingmode count
attr source packetDropReasonIsNoCarrier(packetDropped)
attr title "packet drops: no carrier, count"
scalar aodv25AdhocHighMobilityNetwork.host[0].wlan[0] packetDropNoCarrier:sum(packetBytes) 0
attr interpolationmode none
attr recordingmode sum(packetBytes)
attr source packetDropReasonIsNoCarrier(packetDropped)
attr title "packet drops: no carrier, sum(packetBytes)"
par aodv25AdhocHighMobilityNetwork.host[0].ipv4.transportIn.channel typename "\"ned.IdealChannel\""
par aodv25AdhocHighMobilityNetwork.host[0].ipv4.up.out[0].channel typename "\"ned.IdealChannel\""
par aodv25AdhocHighMobilityNetwork.host[0].ipv4.lp.out[2].channel typename "\"ned.IdealChannel\""
par aodv25AdhocHighMobilityNetwork.host[0].ipv4.ifIn.channel typename "\"ned.IdealChannel\""
par aodv25AdhocHighMobilityNetwork.host[0].ipv4.configurator typename "\"inet.networklayer.configurator.ipv4.Ipv4NodeConfigurator\""
par aodv25AdhocHighMobilityNetwork.host[0].ipv4.configurator interfaceTableModule "\"aodv25AdhocHighMobilityNetwork.host[0].interfaceTable\""
par aodv25AdhocHighMobilityNetwork.host[0].ipv4.configurator routingTableModule "\"aodv25AdhocHighMobilityNetwork.host[0].ipv4.routingTable\""
par aodv25AdhocHighMobilityNetwork.host[0].ipv4.configurator networkConfiguratorModule "\"configurator\""
par aodv25AdhocHighMobilityNetwork.host[0].ipv4.configurator configureRoutingTable true
par aodv25AdhocHighMobilityNetwork.host[0].ipv4.routingTable typename "\"inet.networklayer.ipv4.Ipv4RoutingTable\""
par aodv25AdhocHighMobilityNetwork.host[0].ipv4.routingTable interfaceTableModule "\"aodv25AdhocHighMobilityNetwork.host[0].interfaceTable\""
par aodv25AdhocHighMobilityNetwork.host[0].ipv4.routingTable routerId "\"auto\""
par aodv25AdhocHighMobilityNetwork.host[0].ipv4.routingTable netmaskRoutes "\"*\""
par aodv25AdhocHighMobilityNetwork.host[0].ipv4.routingTable forwarding true
par aodv25AdhocHighMobilityNetwork.host[0].ipv4.routingTable multicastForwarding false
par aodv25AdhocHighMobilityNetwork.host[0].ipv4.routingTable useAdminDist false
par aodv25AdhocHighMobilityNetwork.host[0].ipv4.routingTable routingFile "\"\""
par aodv25AdhocHighMobilityNetwork.host[0].ipv4.natTable typename "\"inet.networklayer.ipv4.Ipv4NatTable\""
par aodv25AdhocHighMobilityNetwork.host[0].ipv4.natTable networkProtocolModule "\"^.ip\""
par aodv25AdhocHighMobilityNetwork.host[0].ipv4.natTable config "<config/> at content:1"
par aodv25AdhocHighMobilityNetwork.host[0].ipv4.up typename "\"inet.common.MessageDispatcher\""
par aodv25AdhocHighMobilityNetwork.host[0].ipv4.up displayStringTextFormat "\"processed %p pk (%l)\""
par aodv25AdhocHighMobilityNetwork.host[0].ipv4.up forwardServiceRegistration true
par aodv25AdhocHighMobilityNetwork.host[0].ipv4.up forwardProtocolRegistration true
par aodv25AdhocHighMobilityNetwork.host[0].ipv4.igmp typename "\"inet.networklayer.ipv4.Igmpv2\""
par aodv25AdhocHighMobilityNetwork.host[0].ipv4.igmp interfaceTableModule "\"aodv25AdhocHighMobilityNetwork.host[0].interfaceTable\""
par aodv25AdhocHighMobilityNetwork.host[0].ipv4.igmp routingTableModule "\"aodv25AdhocHighMobilityNetwork.host[0].ipv4.routingTable\""
par aodv25AdhocHighMobilityNetwork.host[0].ipv4.igmp crcMode "\"declared\""
attr enum declared,computed
par aodv25AdhocHighMobilityNetwork.host[0].ipv4.igmp enabled true
par aodv25AdhocHighMobilityNetwork.host[0].ipv4.igmp robustnessVariable 2
par aodv25AdhocHighMobilityNetwork.host[0].ipv4.igmp queryInterval 125s
attr unit s
par aodv25AdhocHighMobilityNetwork.host[0].ipv4.igmp queryResponseInterval 10s
attr unit s
par aodv25AdhocHighMobilityNetwork.host[0].ipv4.igmp groupMembershipInterval 260s
attr unit s
par aodv25AdhocHighMobilityNetwork.host[0].ipv4.igmp otherQuerierPresentInterval 255s
attr unit s
par aodv25AdhocHighMobilityNetwork.host[0].ipv4.igmp startupQueryInterval 31.25s
attr unit s
par aodv25AdhocHighMobilityNetwork.host[0].ipv4.igmp startupQueryCount 2
par aodv25AdhocHighMobilityNetwork.host[0].ipv4.igmp lastMemberQueryInterval 1s
attr unit s
par aodv25AdhocHighMobilityNetwork.host[0].ipv4.igmp lastMemberQueryCount 2
par aodv25AdhocHighMobilityNetwork.host[0].ipv4.igmp unsolicitedReportInterval 10s
attr unit s
par aodv25AdhocHighMobilityNetwork.host[0].ipv4.icmp typename "\"inet.networklayer.ipv4.Icmp\""
par aodv25AdhocHighMobilityNetwork.host[0].ipv4.icmp interfaceTableModule "\"aodv25AdhocHighMobilityNetwork.host[0].interfaceTable\""
par aodv25AdhocHighMobilityNetwork.host[0].ipv4.icmp routingTableModule "\"aodv25AdhocHighMobilityNetwork.host[0].ipv4.routingTable\""
par aodv25AdhocHighMobilityNetwork.host[0].ipv4.icmp crcMode "\"declared\""
attr enum declared,computed
attr mutable ""
par aodv25AdhocHighMobilityNetwork.host[0].ipv4.icmp quoteLength 8B
attr mutable ""
attr unit B
par aodv25AdhocHighMobilityNetwork.host[0].ipv4.mp typename "\"inet.common.MessageDispatcher\""
par aodv25AdhocHighMobilityNetwork.host[0].ipv4.mp displayStringTextFormat "\"processed %p pk (%l)\""
par aodv25AdhocHighMobilityNetwork.host[0].ipv4.mp forwardServiceRegistration true
par aodv25AdhocHighMobilityNetwork.host[0].ipv4.mp forwardProtocolRegistration true
par aodv25AdhocHighMobilityNetwork.host[0].ipv4.ip typename "\"inet.networklayer.ipv4.Ipv4\""
par aodv25AdhocHighMobilityNetwork.host[0].ipv4.ip interfaceTableModule "\"aodv25AdhocHighMobilityNetwork.host[0].interfaceTable\""
par aodv25AdhocHighMobilityNetwork.host[0].ipv4.ip routingTableModule "\"aodv25AdhocHighMobilityNetwork.host[0].ipv4.routingTable\""
par aodv25AdhocHighMobilityNetwork.host[0].ipv4.ip arpModule "\"aodv25AdhocHighMobilityNetwork.host[0].ipv4.arp\""
par aodv25AdhocHighMobilityNetwork.host[0].ipv4.ip icmpModule "\"aodv25AdhocHighMobilityNetwork.host[0].ipv4.icmp\""
par aodv25AdhocHighMobilityNetwork.host[0].ipv4.ip crcMode "\"declared\""
attr enum declared,computed
par aodv25AdhocHighMobilityNetwork.host[0].ipv4.ip timeToLive 32
par aodv25AdhocHighMobilityNetwork.host[0].ipv4.ip multicastTimeToLive 32
par aodv25AdhocHighMobilityNetwork.host[0].ipv4.ip fragmentTimeout 60s
attr unit s
par aodv25AdhocHighMobilityNetwork.host[0].ipv4.ip limitedBroadcast false
par aodv25AdhocHighMobilityNetwork.host[0].ipv4.ip directBroadcastInterfaces "\"\""
scalar aodv25AdhocHighMobilityNetwork.host[0].ipv4.ip packetDropAddressResolutionFailed:count 0
attr interpolationmode none
attr recordingmode count
attr source packetDropReasonIsAddressResolutionFailed(packetDropped)
attr title "packet drop: address resolution failed, count"
scalar aodv25AdhocHighMobilityNetwork.host[0].ipv4.ip packetDropAddressResolutionFailed:sum(packetBytes) 0
attr interpolationmode none
attr recordingmode sum(packetBytes)
attr source packetDropReasonIsAddressResolutionFailed(packetDropped)
attr title "packet drop: address resolution failed, sum(packetBytes)"
scalar aodv25AdhocHighMobilityNetwork.host[0].ipv4.ip packetDropHopLimitReached:count 0
attr interpolationmode none
attr recordingmode count
attr source packetDropReasonIsHopLimitReached(packetDropped)
attr title "packet drop: hop limit reached, count"
scalar aodv25AdhocHighMobilityNetwork.host[0].ipv4.ip packetDropHopLimitReached:sum(packetBytes) 0
attr interpolationmode none
attr recordingmode sum(packetBytes)
attr source packetDropReasonIsHopLimitReached(packetDropped)
attr title "packet drop: hop limit reached, sum(packetBytes)"
scalar aodv25AdhocHighMobilityNetwork.host[0].ipv4.ip packetDropForwardingDisabled:count 0
attr interpolationmode none
attr recordingmode count
attr source packetDropReasonIsForwardingDisabled(packetDropped)
attr title "packet drop: forwarding disabled, count"
scalar aodv25AdhocHighMobilityNetwork.host[0].ipv4.ip packetDropForwardingDisabled:sum(packetBytes) 0
attr interpolationmode none
attr recordingmode sum(packetBytes)
attr source packetDropReasonIsForwardingDisabled(packetDropped)
attr title "packet drop: forwarding disabled, sum(packetBytes)"
scalar aodv25AdhocHighMobilityNetwork.host[0].ipv4.ip packetDropNoInterfaceFound:count 0
attr interpolationmode none
attr recordingmode count
attr source packetDropReasonIsNoInterfaceFound(packetDropped)
attr title "packet drop: no interface found, count"
scalar aodv25AdhocHighMobilityNetwork.host[0].ipv4.ip packetDropNoInterfaceFound:sum(packetBytes) 0
attr interpolationmode none
attr recordingmode sum(packetBytes)
attr source packetDropReasonIsNoInterfaceFound(packetDropped)
attr title "packet drop: no interface found, sum(packetBytes)"
scalar aodv25AdhocHighMobilityNetwork.host[0].ipv4.ip packetDropNoRouteFound:count 0
attr interpolationmode none
attr recordingmode count
attr source packetDropReasonIsNoRouteFound(packetDropped)
attr title "packet drop: no route found, count"
scalar aodv25AdhocHighMobilityNetwork.host[0].ipv4.ip packetDropNoRouteFound:sum(packetBytes) 0
attr interpolationmode none
attr recordingmode sum(packetBytes)
attr source packetDropReasonIsNoRouteFound(packetDropped)
attr title "packet drop: no route found, sum(packetBytes)"
scalar aodv25AdhocHighMobilityNetwork.host[0].ipv4.ip packetDropUndefined:count 0
attr interpolationmode none
attr recordingmode count
attr source packetDropReasonIsUndefined(packetDropped)
attr title "packet drop: undefined, count"
scalar aodv25AdhocHighMobilityNetwork.host[0].ipv4.ip packetDropUndefined:sum(packetBytes) 0
attr interpolationmode none
attr recordingmode sum(packetBytes)
attr source packetDropReasonIsUndefined(packetDropped)
attr title "packet drop: undefined, sum(packetBytes)"
par aodv25AdhocHighMobilityNetwork.host[0].ipv4.arp typename "\"inet.networklayer.arp.ipv4.Arp\""
par aodv25AdhocHighMobilityNetwork.host[0].ipv4.arp interfaceTableModule "\"aodv25AdhocHighMobilityNetwork.host[0].interfaceTable\""
par aodv25AdhocHighMobilityNetwork.host[0].ipv4.arp routingTableModule "\"aodv25AdhocHighMobilityNetwork.host[0].ipv4.routingTable\""
par aodv25AdhocHighMobilityNetwork.host[0].ipv4.arp retryTimeout 1s
attr unit s
par aodv25AdhocHighMobilityNetwork.host[0].ipv4.arp retryCount 3
par aodv25AdhocHighMobilityNetwork.host[0].ipv4.arp cacheTimeout 120s
attr unit s
par aodv25AdhocHighMobilityNetwork.host[0].ipv4.arp proxyArpInterfaces "\"\""
scalar aodv25AdhocHighMobilityNetwork.host[0].ipv4.arp arpReplySent:count 0
attr recordingmode count
attr source arpReplySent
attr title "ARP replies sent, count"
scalar aodv25AdhocHighMobilityNetwork.host[0].ipv4.arp arpReplySent:sum(packetBytes) 0
attr recordingmode sum(packetBytes)
attr source arpReplySent
attr title "ARP replies sent, sum(packetBytes)"
scalar aodv25AdhocHighMobilityNetwork.host[0].ipv4.arp arpRequestSent:count 1
attr recordingmode count
attr source arpRequestSent
attr title "ARP request sent, count"
scalar aodv25AdhocHighMobilityNetwork.host[0].ipv4.arp arpRequestSent:sum(packetBytes) 28
attr recordingmode sum(packetBytes)
attr source arpRequestSent
attr title "ARP request sent, sum(packetBytes)"
scalar aodv25AdhocHighMobilityNetwork.host[0].ipv4.arp arpResolutionFailed:count 0
attr recordingmode count
attr title "ARP failed resolutions, count"
scalar aodv25AdhocHighMobilityNetwork.host[0].ipv4.arp arpResolutionCompleted:count 2
attr recordingmode count
attr title "ARP completed resolutions, count"
scalar aodv25AdhocHighMobilityNetwork.host[0].ipv4.arp arpResolutionInitiated:count 1
attr recordingmode count
attr title "ARP initiated resolutions, count"
par aodv25AdhocHighMobilityNetwork.host[0].ipv4.lp typename "\"inet.common.MessageDispatcher\""
par aodv25AdhocHighMobilityNetwork.host[0].ipv4.lp displayStringTextFormat "\"processed %p pk (%l)\""
par aodv25AdhocHighMobilityNetwork.host[0].ipv4.lp forwardServiceRegistration true
par aodv25AdhocHighMobilityNetwork.host[0].ipv4.lp forwardProtocolRegistration true
par aodv25AdhocHighMobilityNetwork.host[0].ipv4 typename "\"inet.networklayer.ipv4.Ipv4NetworkLayer\""
par aodv25AdhocHighMobilityNetwork.host[0].ipv4 forwarding true
par aodv25AdhocHighMobilityNetwork.host[0].ipv4 multicastForwarding false
par aodv25AdhocHighMobilityNetwork.host[0].ipv4 interfaceTableModule "\"aodv25AdhocHighMobilityNetwork.host[0].interfaceTable\""
par aodv25AdhocHighMobilityNetwork.host[0].ipv4 displayStringTextFormat "\"%i\""
par aodv25AdhocHighMobilityNetwork.host[0].nl typename "\"inet.common.MessageDispatcher\""
par aodv25AdhocHighMobilityNetwork.host[0].nl displayStringTextFormat "\"processed %p pk (%l)\""
par aodv25AdhocHighMobilityNetwork.host[0].nl forwardServiceRegistration true
par aodv25AdhocHighMobilityNetwork.host[0].nl forwardProtocolRegistration true
par aodv25AdhocHighMobilityNetwork.host[0].udp typename "\"inet.transportlayer.udp.Udp\""
par aodv25AdhocHighMobilityNetwork.host[0].udp interfaceTableModule "\"aodv25AdhocHighMobilityNetwork.host[0].interfaceTable\""
par aodv25AdhocHighMobilityNetwork.host[0].udp icmpModule "\"^.ipv4.icmp\""
par aodv25AdhocHighMobilityNetwork.host[0].udp icmpv6Module "\"^.ipv6.icmpv6\""
par aodv25AdhocHighMobilityNetwork.host[0].udp crcMode "\"declared\""
attr enum disabled,declared,computed
par aodv25AdhocHighMobilityNetwork.host[0].udp defaultMulticastLoop true
scalar aodv25AdhocHighMobilityNetwork.host[0].udp packetReceived:count 27
attr interpolationmode none
attr recordingmode count
attr source packetReceived
attr title "packets received, count"
scalar aodv25AdhocHighMobilityNetwork.host[0].udp packetReceived:sum(packetBytes) 820
attr interpolationmode none
attr recordingmode sum(packetBytes)
attr source packetReceived
attr title "packets received, sum(packetBytes)"
scalar aodv25AdhocHighMobilityNetwork.host[0].udp packetSent:count 20
attr interpolationmode none
attr recordingmode count
attr source packetSent
attr title "packets sent, count"
scalar aodv25AdhocHighMobilityNetwork.host[0].udp packetSent:sum(packetBytes) 580
attr interpolationmode none
attr recordingmode sum(packetBytes)
attr source packetSent
attr title "packets sent, sum(packetBytes)"
scalar aodv25AdhocHighMobilityNetwork.host[0].udp passedUpPk:count 27
attr interpolationmode none
attr recordingmode count
attr source packetSentToUpper
attr title "packets passed up, count"
scalar aodv25AdhocHighMobilityNetwork.host[0].udp droppedPkWrongPort:count 0
attr interpolationmode none
attr recordingmode count
attr source packetDropReasonIsNoPortFound(packetDropped)
attr title "packets dropped (wrong port), count"
scalar aodv25AdhocHighMobilityNetwork.host[0].udp droppedPkBadChecksum:count 0
attr interpolationmode none
attr recordingmode count
attr source packetDropReasonIsIncorrectlyReceived(packetDropped)
attr title "packets dropped (checksum error), count"
par aodv25AdhocHighMobilityNetwork.host[0].tcp typename "\"inet.transportlayer.tcp.Tcp\""
par aodv25AdhocHighMobilityNetwork.host[0].tcp crcMode "\"declared\""
attr enum declared,computed
par aodv25AdhocHighMobilityNetwork.host[0].tcp advertisedWindow 7504
par aodv25AdhocHighMobilityNetwork.host[0].tcp delayedAcksEnabled false
par aodv25AdhocHighMobilityNetwork.host[0].tcp nagleEnabled true
par aodv25AdhocHighMobilityNetwork.host[0].tcp limitedTransmitEnabled false
par aodv25AdhocHighMobilityNetwork.host[0].tcp increasedIWEnabled false
par aodv25AdhocHighMobilityNetwork.host[0].tcp sackSupport false
par aodv25AdhocHighMobilityNetwork.host[0].tcp windowScalingSupport false
par aodv25AdhocHighMobilityNetwork.host[0].tcp windowScalingFactor -1
par aodv25AdhocHighMobilityNetwork.host[0].tcp timestampSupport false
par aodv25AdhocHighMobilityNetwork.host[0].tcp mss 536
par aodv25AdhocHighMobilityNetwork.host[0].tcp msl 120s
attr unit s
par aodv25AdhocHighMobilityNetwork.host[0].tcp tcpAlgorithmClass "\"TcpReno\""
par aodv25AdhocHighMobilityNetwork.host[0].tcp useDataNotification false
par aodv25AdhocHighMobilityNetwork.host[0].tcp dupthresh 3
par aodv25AdhocHighMobilityNetwork.host[0].tcp initialSsthresh 4294967295
par aodv25AdhocHighMobilityNetwork.host[0].tcp stopOperationExtraTime 0s
attr unit s
par aodv25AdhocHighMobilityNetwork.host[0].tcp stopOperationTimeout 2s
attr unit s
par aodv25AdhocHighMobilityNetwork.host[0].tcp ecnWillingness false
par aodv25AdhocHighMobilityNetwork.host[0].tcp dctcpGamma 0.0625
par aodv25AdhocHighMobilityNetwork.host[0].tn typename "\"inet.common.MessageDispatcher\""
par aodv25AdhocHighMobilityNetwork.host[0].tn displayStringTextFormat "\"processed %p pk (%l)\""
par aodv25AdhocHighMobilityNetwork.host[0].tn forwardServiceRegistration true
par aodv25AdhocHighMobilityNetwork.host[0].tn forwardProtocolRegistration true
par aodv25AdhocHighMobilityNetwork.host[0].app[0] typename "\"inet.applications.pingapp.PingApp\""
par aodv25AdhocHighMobilityNetwork.host[0].app[0] destAddr "\"host[0,24](ipv4)\""
par aodv25AdhocHighMobilityNetwork.host[0].app[0] srcAddr "\"\""
par aodv25AdhocHighMobilityNetwork.host[0].app[0] packetSize 56B
attr unit B
par aodv25AdhocHighMobilityNetwork.host[0].app[0] sendInterval "uniform(0.1s, 0.1s)"
attr unit s
par aodv25AdhocHighMobilityNetwork.host[0].app[0] hopLimit -1
par aodv25AdhocHighMobilityNetwork.host[0].app[0] count -1
par aodv25AdhocHighMobilityNetwork.host[0].app[0] startTime 1s
attr unit s
par aodv25AdhocHighMobilityNetwork.host[0].app[0] stopTime -1s
attr unit s
par aodv25AdhocHighMobilityNetwork.host[0].app[0] sleepDuration 0s
attr unit s
par aodv25AdhocHighMobilityNetwork.host[0].app[0] continuous false
par aodv25AdhocHighMobilityNetwork.host[0].app[0] printPing true
par aodv25AdhocHighMobilityNetwork.host[0].app[0] crcMode "\"declared\""
attr enum declared,computed
par aodv25AdhocHighMobilityNetwork.host[0].app[0] networkProtocol "\"\""
par aodv25AdhocHighMobilityNetwork.host[0].app[0] stopOperationExtraTime -1s
attr unit s
par aodv25AdhocHighMobilityNetwork.host[0].app[0] stopOperationTimeout 2s
attr unit s
scalar aodv25AdhocHighMobilityNetwork.host[0].app[0] "Pings sent" 1191
scalar aodv25AdhocHighMobilityNetwork.host[0].app[0] "ping loss rate (%)" 0
scalar aodv25AdhocHighMobilityNetwork.host[0].app[0] "ping out-of-order rate (%)" 0
scalar aodv25AdhocHighMobilityNetwork.host[0].app[0] pingRxSeq:count 1191
attr interpolationmode none
attr recordingmode count
attr title "ping rx seq, count"
scalar aodv25AdhocHighMobilityNetwork.host[0].app[0] pingTxSeq:count 1191
attr interpolationmode none
attr recordingmode count
attr title "ping tx seq, count"
scalar aodv25AdhocHighMobilityNetwork.host[0].app[0] numOutOfOrderArrivals:last nan
attr interpolationmode none
attr recordingmode last
attr title "ping out-of-order arrivals, last"
scalar aodv25AdhocHighMobilityNetwork.host[0].app[0] numLost:last nan
attr interpolationmode none
attr recordingmode last
attr title "pings lost, last"
statistic aodv25AdhocHighMobilityNetwork.host[0].app[0] rtt:histogram
field count 0
field mean nan
field stddev nan
field min nan
field max nan
field sum 0
field sqrsum 0
attr interpolationmode none
attr recordingmode histogram
attr title "ping round-trip time"
attr unit s
bin	-inf	0
bin	0	0
bin	1	0
par aodv25AdhocHighMobilityNetwork.host[0].at typename "\"inet.common.MessageDispatcher\""
par aodv25AdhocHighMobilityNetwork.host[0].at displayStringTextFormat "\"processed %p pk (%l)\""
par aodv25AdhocHighMobilityNetwork.host[0].at forwardServiceRegistration true
par aodv25AdhocHighMobilityNetwork.host[0].at forwardProtocolRegistration true
par aodv25AdhocHighMobilityNetwork.host[0].aodv typename "\"inet.routing.aodv.Aodv\""
par aodv25AdhocHighMobilityNetwork.host[0].aodv routingTableModule "\"^.ipv4.routingTable\""
par aodv25AdhocHighMobilityNetwork.host[0].aodv interfaceTableModule "\"aodv25AdhocHighMobilityNetwork.host[0].interfaceTable\""
par aodv25AdhocHighMobilityNetwork.host[0].aodv networkProtocolModule "\"^.ipv4.ip\""
par aodv25AdhocHighMobilityNetwork.host[0].aodv askGratuitousRREP false
par aodv25AdhocHighMobilityNetwork.host[0].aodv useHelloMessages false
par aodv25AdhocHighMobilityNetwork.host[0].aodv useLocalRepair false
par aodv25AdhocHighMobilityNetwork.host[0].aodv destinationOnlyFlag false
par aodv25AdhocHighMobilityNetwork.host[0].aodv udpPort 654
par aodv25AdhocHighMobilityNetwork.host[0].aodv interface "\"wlan0\""
par aodv25AdhocHighMobilityNetwork.host[0].aodv maxPeriodicJitter 0.25s
attr unit s
par aodv25AdhocHighMobilityNetwork.host[0].aodv periodicJitter "uniform(0s, maxPeriodicJitter)"
attr unit s
par aodv25AdhocHighMobilityNetwork.host[0].aodv maxJitter 0.005s
attr unit s
par aodv25AdhocHighMobilityNetwork.host[0].aodv jitter "uniform(0ms, maxJitter)"
attr unit s
par aodv25AdhocHighMobilityNetwork.host[0].aodv helloInterval 1s
attr unit s
par aodv25AdhocHighMobilityNetwork.host[0].aodv allowedHelloLoss 2
par aodv25AdhocHighMobilityNetwork.host[0].aodv activeRouteTimeout 3s
attr unit s
par aodv25AdhocHighMobilityNetwork.host[0].aodv netDiameter 35
par aodv25AdhocHighMobilityNetwork.host[0].aodv nodeTraversalTime 0.04s
attr unit s
par aodv25AdhocHighMobilityNetwork.host[0].aodv rerrRatelimit 10
par aodv25AdhocHighMobilityNetwork.host[0].aodv rreqRetries 2
par aodv25AdhocHighMobilityNetwork.host[0].aodv rreqRatelimit 10
par aodv25AdhocHighMobilityNetwork.host[0].aodv timeoutBuffer 2
par aodv25AdhocHighMobilityNetwork.host[0].aodv ttlStart 2
par aodv25AdhocHighMobilityNetwork.host[0].aodv ttlIncrement 2
par aodv25AdhocHighMobilityNetwork.host[0].aodv ttlThreshold 7
par aodv25AdhocHighMobilityNetwork.host[0].aodv localAddTTL 2
par aodv25AdhocHighMobilityNetwork.host[0].aodv myRouteTimeout 6s
attr unit s
par aodv25AdhocHighMobilityNetwork.host[0].aodv deletePeriod 15s
attr unit s
par aodv25AdhocHighMobilityNetwork.host[0].aodv blacklistTimeout 5.6s
attr unit s
par aodv25AdhocHighMobilityNetwork.host[0].aodv netTraversalTime 2.8s
attr unit s
par aodv25AdhocHighMobilityNetwork.host[0].aodv nextHopWait 0.05s
attr unit s
par aodv25AdhocHighMobilityNetwork.host[0].aodv pathDiscoveryTime 5.6s
attr unit s
par aodv25AdhocHighMobilityNetwork.host[0] typename "\"inet.node.aodv.AodvRouter\""
par aodv25AdhocHighMobilityNetwork.host[0] hasStatus true
par aodv25AdhocHighMobilityNetwork.host[0] osgModel "\"\""
par aodv25AdhocHighMobilityNetwork.host[0] osgModelColor "\"\""
par aodv25AdhocHighMobilityNetwork.host[0] canvasImage "\"\""
par aodv25AdhocHighMobilityNetwork.host[0] canvasImageColor "\"\""
par aodv25AdhocHighMobilityNetwork.host[0] recordPcap false
par aodv25AdhocHighMobilityNetwork.host[0] numPcapRecorders 0
par aodv25AdhocHighMobilityNetwork.host[0] numLoInterfaces 1
par aodv25AdhocHighMobilityNetwork.host[0] numWlanInterfaces 1
par aodv25AdhocHighMobilityNetwork.host[0] numEthInterfaces 0
par aodv25AdhocHighMobilityNetwork.host[0] numPppInterfaces 0
par aodv25AdhocHighMobilityNetwork.host[0] numTunInterfaces 0
par aodv25AdhocHighMobilityNetwork.host[0] numVirtInterfaces 0
par aodv25AdhocHighMobilityNetwork.host[0] fcsMode "\"declared\""
attr enum declared,computed
par aodv25AdhocHighMobilityNetwork.host[0] hasIpv4 true
par aodv25AdhocHighMobilityNetwork.host[0] hasIpv6 false
par aodv25AdhocHighMobilityNetwork.host[0] hasGn false
par aodv25AdhocHighMobilityNetwork.host[0] forwarding true
par aodv25AdhocHighMobilityNetwork.host[0] multicastForwarding false
par aodv25AdhocHighMobilityNetwork.host[0] hasUdp true
par aodv25AdhocHighMobilityNetwork.host[0] hasTcp true
par aodv25AdhocHighMobilityNetwork.host[0] hasSctp false
par aodv25AdhocHighMobilityNetwork.host[0] numApps 1
par aodv25AdhocHighMobilityNetwork.host[1].radioIn[0].channel typename "\"ned.IdealChannel\""
par aodv25AdhocHighMobilityNetwork.host[1].status typename "\"inet.common.lifecycle.NodeStatus\""
par aodv25AdhocHighMobilityNetwork.host[1].status initialStatus "\"UP\""
par aodv25AdhocHighMobilityNetwork.host[1].mobility typename "\"inet.mobility.single.MassMobility\""
par aodv25AdhocHighMobilityNetwork.host[1].mobility subjectModule "\"^\""
par aodv25AdhocHighMobilityNetwork.host[1].mobility coordinateSystemModule "\"\""
par aodv25AdhocHighMobilityNetwork.host[1].mobility displayStringTextFormat "\"p: %p\\nv: %v\""
attr mutable ""
par aodv25AdhocHighMobilityNetwork.host[1].mobility updateDisplayString true
par aodv25AdhocHighMobilityNetwork.host[1].mobility constraintAreaMinX 0m
attr unit m
par aodv25AdhocHighMobilityNetwork.host[1].mobility constraintAreaMinY 0m
attr unit m
par aodv25AdhocHighMobilityNetwork.host[1].mobility constraintAreaMinZ 0m
attr unit m
par aodv25AdhocHighMobilityNetwork.host[1].mobility constraintAreaMaxX 600m
attr unit m
par aodv25AdhocHighMobilityNetwork.host[1].mobility constraintAreaMaxY 600m
attr unit m
par aodv25AdhocHighMobilityNetwork.host[1].mobility constraintAreaMaxZ 0m
attr unit m
par aodv25AdhocHighMobilityNetwork.host[1].mobility updateInterval 0.1s
attr unit s
par aodv25AdhocHighMobilityNetwork.host[1].mobility faceForward true
par aodv25AdhocHighMobilityNetwork.host[1].mobility initialX 0.0686286m
attr unit m
par aodv25AdhocHighMobilityNetwork.host[1].mobility initialY 76.8747m
attr unit m
par aodv25AdhocHighMobilityNetwork.host[1].mobility initialZ 0m
attr unit m
par aodv25AdhocHighMobilityNetwork.host[1].mobility initialMovementHeading 359.655deg
attr unit deg
par aodv25AdhocHighMobilityNetwork.host[1].mobility initialMovementElevation 0deg
attr unit deg
par aodv25AdhocHighMobilityNetwork.host[1].mobility initFromDisplayString true
par aodv25AdhocHighMobilityNetwork.host[1].mobility changeInterval "uniform(1s, 1s)"
attr unit s
par aodv25AdhocHighMobilityNetwork.host[1].mobility angleDelta "uniform(0deg, 360deg)"
attr unit deg
par aodv25AdhocHighMobilityNetwork.host[1].mobility rotationAxisAngle 0deg
attr unit deg
par aodv25AdhocHighMobilityNetwork.host[1].mobility speed "normal(5mps, 5mps)"
attr mutable ""
attr unit mps
par aodv25AdhocHighMobilityNetwork.host[1].interfaceTable typename "\"inet.networklayer.common.InterfaceTable\""
par aodv25AdhocHighMobilityNetwork.host[1].interfaceTable displayAddresses false
par aodv25AdhocHighMobilityNetwork.host[1].cb typename "\"inet.common.MessageDispatcher\""
par aodv25AdhocHighMobilityNetwork.host[1].cb displayStringTextFormat "\"processed %p pk (%l)\""
par aodv25AdhocHighMobilityNetwork.host[1].cb forwardServiceRegistration true
par aodv25AdhocHighMobilityNetwork.host[1].cb forwardProtocolRegistration true
par aodv25AdhocHighMobilityNetwork.host[1].bl typename "\"inet.common.MessageDispatcher\""
par aodv25AdhocHighMobilityNetwork.host[1].bl displayStringTextFormat "\"processed %p pk (%l)\""
par aodv25AdhocHighMobilityNetwork.host[1].bl forwardServiceRegistration true
par aodv25AdhocHighMobilityNetwork.host[1].bl forwardProtocolRegistration true
par aodv25AdhocHighMobilityNetwork.host[1].li typename "\"inet.common.MessageDispatcher\""
par aodv25AdhocHighMobilityNetwork.host[1].li displayStringTextFormat "\"processed %p pk (%l)\""
par aodv25AdhocHighMobilityNetwork.host[1].li forwardServiceRegistration true
par aodv25AdhocHighMobilityNetwork.host[1].li forwardProtocolRegistration true
par aodv25AdhocHighMobilityNetwork.host[1].lo[0].upperLayerIn.channel typename "\"ned.IdealChannel\""
par aodv25AdhocHighMobilityNetwork.host[1].lo[0].lo.upperLayerOut.channel typename "\"ned.IdealChannel\""
par aodv25AdhocHighMobilityNetwork.host[1].lo[0].lo typename "\"inet.linklayer.loopback.Loopback\""
par aodv25AdhocHighMobilityNetwork.host[1].lo[0].lo interfaceTableModule "\"aodv25AdhocHighMobilityNetwork.host[1].interfaceTable\""
par aodv25AdhocHighMobilityNetwork.host[1].lo[0].lo mtu 4470B
attr unit B
scalar aodv25AdhocHighMobilityNetwork.host[1].lo[0].lo rcvdPkFromHl:count 0
attr interpolationmode none
attr recordingmode count
attr source packetReceivedFromUpper
attr title "packets received from higher layer, count"
scalar aodv25AdhocHighMobilityNetwork.host[1].lo[0].lo rcvdPkFromHl:sum(packetBytes) 0
attr interpolationmode none
attr recordingmode sum(packetBytes)
attr source packetReceivedFromUpper
attr title "packets received from higher layer, sum(packetBytes)"
scalar aodv25AdhocHighMobilityNetwork.host[1].lo[0].lo passedUpPk:count 0
attr interpolationmode none
attr recordingmode count
attr source packetSentToUpper
attr title "packets passed to higher layer, count"
scalar aodv25AdhocHighMobilityNetwork.host[1].lo[0].lo passedUpPk:sum(packetBytes) 0
attr interpolationmode none
attr recordingmode sum(packetBytes)
attr source packetSentToUpper
attr title "packets passed to higher layer, sum(packetBytes)"
par aodv25AdhocHighMobilityNetwork.host[1].lo[0] typename "\"inet.linklayer.loopback.LoopbackInterface\""
par aodv25AdhocHighMobilityNetwork.host[1].lo[0] displayStringTextFormat "\"%a (%i)\\n%m\""
par aodv25AdhocHighMobilityNetwork.host[1].lo[0] recordPcap false
par aodv25AdhocHighMobilityNetwork.host[1].lo[0] numPcapRecorders 0
par aodv25AdhocHighMobilityNetwork.host[1].lo[0] interfaceTableModule "\"aodv25AdhocHighMobilityNetwork.host[1].interfaceTable\""
scalar aodv25AdhocHighMobilityNetwork.host[1].lo[0] packetDropInterfaceDown:count 0
attr interpolationmode none
attr recordingmode count
attr source packetDropReasonIsInterfaceDown(packetDropped)
attr title "packet drops: interface down, count"
scalar aodv25AdhocHighMobilityNetwork.host[1].lo[0] packetDropInterfaceDown:sum(packetBytes) 0
attr interpolationmode none
attr recordingmode sum(packetBytes)
attr source packetDropReasonIsInterfaceDown(packetDropped)
attr title "packet drops: interface down, sum(packetBytes)"
scalar aodv25AdhocHighMobilityNetwork.host[1].lo[0] packetDropNoCarrier:count 0
attr interpolationmode none
attr recordingmode count
attr source packetDropReasonIsNoCarrier(packetDropped)
attr title "packet drops: no carrier, count"
scalar aodv25AdhocHighMobilityNetwork.host[1].lo[0] packetDropNoCarrier:sum(packetBytes) 0
attr interpolationmode none
attr recordingmode sum(packetBytes)
attr source packetDropReasonIsNoCarrier(packetDropped)
attr title "packet drops: no carrier, sum(packetBytes)"
par aodv25AdhocHighMobilityNetwork.host[1].wlan[0].upperLayerIn.channel typename "\"ned.IdealChannel\""
par aodv25AdhocHighMobilityNetwork.host[1].wlan[0].radioIn.channel typename "\"ned.IdealChannel\""
par aodv25AdhocHighMobilityNetwork.host[1].wlan[0].mac.upperLayerOut.channel typename "\"ned.IdealChannel\""
par aodv25AdhocHighMobilityNetwork.host[1].wlan[0].queue typename "\"inet.queueing.queue.DropTailQueue\""
par aodv25AdhocHighMobilityNetwork.host[1].wlan[0].queue displayStringTextFormat "\"contains %p pk (%l) pushed %u\\npulled %o removed %r dropped %d\""
par aodv25AdhocHighMobilityNetwork.host[1].wlan[0].queue packetCapacity 100
par aodv25AdhocHighMobilityNetwork.host[1].wlan[0].queue dataCapacity -1b
attr unit b
par aodv25AdhocHighMobilityNetwork.host[1].wlan[0].queue dropperClass "\"inet::queueing::PacketAtCollectionEndDropper\""
par aodv25AdhocHighMobilityNetwork.host[1].wlan[0].queue comparatorClass "\"\""
par aodv25AdhocHighMobilityNetwork.host[1].wlan[0].queue bufferModule "\"\""
scalar aodv25AdhocHighMobilityNetwork.host[1].wlan[0].queue queueLength:last 0
attr autoWarmupFilter false
attr interpolationmode sample-hold
attr recordingmode last
attr source "warmup(atomic(constant0(packetPushEnded) + count(packetPushStarted) - count(packetPulled) - count(packetRemoved) - count(packetDropped)))"
attr title "queue length, last"
attr unit pk
scalar aodv25AdhocHighMobilityNetwork.host[1].wlan[0].queue queueLength:max 0
attr autoWarmupFilter false
attr interpolationmode sample-hold
attr recordingmode max
attr source "warmup(atomic(constant0(packetPushEnded) + count(packetPushStarted) - count(packetPulled) - count(packetRemoved) - count(packetDropped)))"
attr title "queue length, max"
attr unit pk
scalar aodv25AdhocHighMobilityNetwork.host[1].wlan[0].queue queueLength:timeavg 0
attr autoWarmupFilter false
attr interpolationmode sample-hold
attr recordingmode timeavg
attr source "warmup(atomic(constant0(packetPushEnded) + count(packetPushStarted) - count(packetPulled) - count(packetRemoved) - count(packetDropped)))"
attr title "queue length, timeavg"
attr unit pk
scalar aodv25AdhocHighMobilityNetwork.host[1].wlan[0].queue queueBitLength:last 0
attr autoWarmupFilter false
attr interpolationmode sample-hold
attr recordingmode last
attr source "warmup(atomic(constant0(packetPushEnded) + sum(packetLength(packetPushStarted)) - sum(packetLength(packetPulled)) - sum(packetLength(packetRemoved)) - sum(packetLength(packetDropped))))"
attr title "queue bit length, last"
attr unit b
scalar aodv25AdhocHighMobilityNetwork.host[1].wlan[0].queue queueBitLength:max 0
attr autoWarmupFilter false
attr interpolationmode sample-hold
attr recordingmode max
attr source "warmup(atomic(constant0(packetPushEnded) + sum(packetLength(packetPushStarted)) - sum(packetLength(packetPulled)) - sum(packetLength(packetRemoved)) - sum(packetLength(packetDropped))))"
attr title "queue bit length, max"
attr unit b
scalar aodv25AdhocHighMobilityNetwork.host[1].wlan[0].queue queueBitLength:timeavg 0
attr autoWarmupFilter false
attr interpolationmode sample-hold
attr recordingmode timeavg
attr source "warmup(atomic(constant0(packetPushEnded) + sum(packetLength(packetPushStarted)) - sum(packetLength(packetPulled)) - sum(packetLength(packetRemoved)) - sum(packetLength(packetDropped))))"
attr title "queue bit length, timeavg"
attr unit b
statistic aodv25AdhocHighMobilityNetwork.host[1].wlan[0].queue queueingTime:histogram
field count 98
field mean 0
field stddev 0
field min 0
field max 0
field sum 0
field sqrsum 0
attr interpolationmode none
attr recordingmode histogram
attr source queueingTime(packetPulled)
attr title "queueing times"
attr unit s
bin	-inf	0
bin	-0.5	0
bin	-0.48	0
bin	-0.46	0
bin	-0.44	0
bin	-0.42	0
bin	-0.4	0
bin	-0.38	0
bin	-0.36	0
bin	-0.34	0
bin	-0.32	0
bin	-0.3	0
bin	-0.28	0
bin	-0.26	0
bin	-0.24	0
bin	-0.22	0
bin	-0.2	0
bin	-0.18	0
bin	-0.16	0
bin	-0.14	0
bin	-0.12	0
bin	-0.1	0
bin	-0.08	0
bin	-0.06	0
bin	-0.04	0
bin	-0.02	0
bin	0	98
bin	0.02	0
bin	0.04	0
bin	0.06	0
bin	0.08	0
bin	0.1	0
bin	0.12	0
bin	0.14	0
bin	0.16	0
bin	0.18	0
bin	0.2	0
bin	0.22	0
bin	0.24	0
bin	0.26	0
bin	0.28	0
bin	0.3	0
bin	0.32	0
bin	0.34	0
bin	0.36	0
bin	0.38	0
bin	0.4	0
bin	0.42	0
bin	0.44	0
bin	0.46	0
bin	0.48	0
bin	0.5	0
scalar aodv25AdhocHighMobilityNetwork.host[1].wlan[0].queue outgoingPackets:count 98
attr recordingmode count
attr source packetPulled
attr title "outgoing packets, count"
attr unit pk
scalar aodv25AdhocHighMobilityNetwork.host[1].wlan[0].queue outgoingPacketLengths:sum 40768
attr interpolationmode none
attr recordingmode sum
attr source packetLength(packetPulled)
attr title "outgoing packet lengths, sum"
attr unit b
statistic aodv25AdhocHighMobilityNetwork.host[1].wlan[0].queue outgoingPacketLengths:histogram
field count 98
field mean 416
field stddev 0
field min 416
field max 416
field sum 40768
field sqrsum 16959488
attr interpolationmode none
attr recordingmode histogram
attr source packetLength(packetPulled)
attr title "outgoing packet lengths"
attr unit b
bin	-inf	0
bin	415	0
bin	416	98
bin	417	0
statistic aodv25AdhocHighMobilityNetwork.host[1].wlan[0].queue flowQueueingTime:histogram
field count 0
field mean nan
field stddev nan
field min nan
field max nan
field sum 0
field sqrsum 0
attr interpolationmode none
attr recordingmode histogram
attr source queueingTime(demuxFlow(packetPulled))
attr title "flow queueing times"
attr unit s
bin	-inf	0
bin	0	0
bin	1	0
scalar aodv25AdhocHighMobilityNetwork.host[1].wlan[0].queue incomingPackets:count 98
attr recordingmode count
attr source packetPushStarted
attr title "incoming packets, count"
attr unit pk
scalar aodv25AdhocHighMobilityNetwork.host[1].wlan[0].queue incomingPacketLengths:sum 40768
attr interpolationmode none
attr recordingmode sum
attr source packetLength(packetPushStarted)
attr title "incoming packet lengths, sum"
attr unit b
statistic aodv25AdhocHighMobilityNetwork.host[1].wlan[0].queue incomingPacketLengths:histogram
field count 98
field mean 416
field stddev 0
field min 416
field max 416
field sum 40768
field sqrsum 16959488
attr interpolationmode none
attr recordingmode histogram
attr source packetLength(packetPushStarted)
attr title "incoming packet lengths"
attr unit b
bin	-inf	0
bin	415	0
bin	416	98
bin	417	0
scalar aodv25AdhocHighMobilityNetwork.host[1].wlan[0].queue droppedPacketsQueueOverflow:count 0
attr interpolationmode none
attr recordingmode count
attr source packetDropReasonIsQueueOverflow(packetDropped)
attr title "dropped packets: queue overflow, count"
attr unit pk
scalar aodv25AdhocHighMobilityNetwork.host[1].wlan[0].queue droppedPacketLengthsQueueOverflow:sum 0
attr interpolationmode none
attr recordingmode sum
attr source packetLength(packetDropReasonIsQueueOverflow(packetDropped))
attr title "dropped packet lengths: queue overflow, sum"
attr unit b
par aodv25AdhocHighMobilityNetwork.host[1].wlan[0].mac typename "\"inet.linklayer.acking.AckingMac\""
par aodv25AdhocHighMobilityNetwork.host[1].wlan[0].mac interfaceTableModule "\"aodv25AdhocHighMobilityNetwork.host[1].interfaceTable\""
par aodv25AdhocHighMobilityNetwork.host[1].wlan[0].mac address "\"auto\""
attr mutable ""
par aodv25AdhocHighMobilityNetwork.host[1].wlan[0].mac bitrate 1e+07bps
attr unit bps
par aodv25AdhocHighMobilityNetwork.host[1].wlan[0].mac mtu 4470B
attr unit B
par aodv25AdhocHighMobilityNetwork.host[1].wlan[0].mac headerLength 23B
attr unit B
par aodv25AdhocHighMobilityNetwork.host[1].wlan[0].mac promiscuous false
par aodv25AdhocHighMobilityNetwork.host[1].wlan[0].mac fullDuplex true
par aodv25AdhocHighMobilityNetwork.host[1].wlan[0].mac useAck true
par aodv25AdhocHighMobilityNetwork.host[1].wlan[0].mac ackTimeout 0.1s
attr unit s
scalar aodv25AdhocHighMobilityNetwork.host[1].wlan[0].mac rcvdPkFromLl:count 58
attr interpolationmode none
attr recordingmode count
attr source packetReceivedFromLower
attr title "packets received from lower layer, count"
scalar aodv25AdhocHighMobilityNetwork.host[1].wlan[0].mac rcvdPkFromLl:sum(packetBytes) 4350
attr interpolationmode none
attr recordingmode sum(packetBytes)
attr source packetReceivedFromLower
attr title "packets received from lower layer, sum(packetBytes)"
scalar aodv25AdhocHighMobilityNetwork.host[1].wlan[0].mac sentDownPk:count 98
attr interpolationmode none
attr recordingmode count
attr source packetSentToLower
attr title "packets sent to lower layer, count"
scalar aodv25AdhocHighMobilityNetwork.host[1].wlan[0].mac sentDownPk:sum(packetBytes) 7350
attr interpolationmode none
attr recordingmode sum(packetBytes)
attr source packetSentToLower
attr title "packets sent to lower layer, sum(packetBytes)"
scalar aodv25AdhocHighMobilityNetwork.host[1].wlan[0].mac rcvdPkFromHl:count 98
attr interpolationmode none
attr recordingmode count
attr source packetReceivedFromUpper
attr title "packets received from higher layer, count"
scalar aodv25AdhocHighMobilityNetwork.host[1].wlan[0].mac rcvdPkFromHl:sum(packetBytes) 5096
attr interpolationmode none
attr recordingmode sum(packetBytes)
attr source packetReceivedFromUpper
attr title "packets received from higher layer, sum(packetBytes)"
scalar aodv25AdhocHighMobilityNetwork.host[1].wlan[0].mac passedUpPk:count 56
attr interpolationmode none
attr recordingmode count
attr source packetSentToUpper
attr title "packets passed to higher layer, count"
scalar aodv25AdhocHighMobilityNetwork.host[1].wlan[0].mac passedUpPk:sum(packetBytes) 2912
attr interpolationmode none
attr recordingmode sum(packetBytes)
attr source packetSentToUpper
attr title "packets passed to higher layer, sum(packetBytes)"
scalar aodv25AdhocHighMobilityNetwork.host[1].wlan[0].mac packetDropIncorrectlyReceived:count 2
attr interpolationmode none
attr recordingmode count
attr source packetDropReasonIsIncorrectlyReceived(packetDropped)
attr title "packet drop: incorrectly received, count"
scalar aodv25AdhocHighMobilityNetwork.host[1].wlan[0].mac packetDropIncorrectlyReceived:sum(packetBytes) 150
attr interpolationmode none
attr recordingmode sum(packetBytes)
attr source packetDropReasonIsIncorrectlyReceived(packetDropped)
attr title "packet drop: incorrectly received, sum(packetBytes)"
scalar aodv25AdhocHighMobilityNetwork.host[1].wlan[0].mac packetDropInterfaceDown:count 0
attr interpolationmode none
attr recordingmode count
attr source packetDropReasonIsInterfaceDown(packetDropped)
attr title "packet drop: interface down, count"
scalar aodv25AdhocHighMobilityNetwork.host[1].wlan[0].mac packetDropInterfaceDown:sum(packetBytes) 0
attr interpolationmode none
attr recordingmode sum(packetBytes)
attr source packetDropReasonIsInterfaceDown(packetDropped)
attr title "packet drop: interface down, sum(packetBytes)"
scalar aodv25AdhocHighMobilityNetwork.host[1].wlan[0].mac packetDropNotAddressedToUs:count 0
attr interpolationmode none
attr recordingmode count
attr source packetDropReasonIsNotAddressedToUs(packetDropped)
attr title "packet drop: not addressed to us, count"
scalar aodv25AdhocHighMobilityNetwork.host[1].wlan[0].mac packetDropNotAddressedToUs:sum(packetBytes) 0
attr interpolationmode none
attr recordingmode sum(packetBytes)
attr source packetDropReasonIsNotAddressedToUs(packetDropped)
attr title "packet drop: not addressed to us, sum(packetBytes)"
scalar aodv25AdhocHighMobilityNetwork.host[1].wlan[0].mac linkBroken:count 0
attr interpolationmode none
attr recordingmode count
attr source linkBroken
attr title "link break, count"
par aodv25AdhocHighMobilityNetwork.host[1].wlan[0].radio.antenna typename "\"inet.physicallayer.wireless.common.antenna.IsotropicAntenna\""
par aodv25AdhocHighMobilityNetwork.host[1].wlan[0].radio.antenna mobilityModule "\"^.^.^.mobility\""
par aodv25AdhocHighMobilityNetwork.host[1].wlan[0].radio.antenna numAntennas 1
par aodv25AdhocHighMobilityNetwork.host[1].wlan[0].radio.transmitter typename "\"inet.physicallayer.wireless.unitdisk.UnitDiskTransmitter\""
par aodv25AdhocHighMobilityNetwork.host[1].wlan[0].radio.transmitter preambleDuration 0s
attr unit s
par aodv25AdhocHighMobilityNetwork.host[1].wlan[0].radio.transmitter headerLength 96b
attr unit b
par aodv25AdhocHighMobilityNetwork.host[1].wlan[0].radio.transmitter bitrate 1e+07bps
attr unit bps
par aodv25AdhocHighMobilityNetwork.host[1].wlan[0].radio.transmitter communicationRange 50m
attr unit m
par aodv25AdhocHighMobilityNetwork.host[1].wlan[0].radio.transmitter interferenceRange 100m
attr unit m
par aodv25AdhocHighMobilityNetwork.host[1].wlan[0].radio.transmitter detectionRange 100m
attr unit m
par aodv25AdhocHighMobilityNetwork.host[1].wlan[0].radio.receiver typename "\"inet.physicallayer.wireless.unitdisk.UnitDiskReceiver\""
[...]
attr unit s
par aodv25AdhocHighMobilityNetwork.host[24].ipv4.igmp startupQueryCount 2
par aodv25AdhocHighMobilityNetwork.host[24].ipv4.igmp lastMemberQueryInterval 1s
attr unit s
par aodv25AdhocHighMobilityNetwork.host[24].ipv4.igmp lastMemberQueryCount 2
par aodv25AdhocHighMobilityNetwork.host[24].ipv4.igmp unsolicitedReportInterval 10s
attr unit s
par aodv25AdhocHighMobilityNetwork.host[24].ipv4.icmp typename "\"inet.networklayer.ipv4.Icmp\""
par aodv25AdhocHighMobilityNetwork.host[24].ipv4.icmp interfaceTableModule "\"aodv25AdhocHighMobilityNetwork.host[24].interfaceTable\""
par aodv25AdhocHighMobilityNetwork.host[24].ipv4.icmp routingTableModule "\"aodv25AdhocHighMobilityNetwork.host[24].ipv4.routingTable\""
par aodv25AdhocHighMobilityNetwork.host[24].ipv4.icmp crcMode "\"declared\""
attr enum declared,computed
attr mutable ""
par aodv25AdhocHighMobilityNetwork.host[24].ipv4.icmp quoteLength 8B
attr mutable ""
attr unit B
par aodv25AdhocHighMobilityNetwork.host[24].ipv4.mp typename "\"inet.common.MessageDispatcher\""
par aodv25AdhocHighMobilityNetwork.host[24].ipv4.mp displayStringTextFormat "\"processed %p pk (%l)\""
par aodv25AdhocHighMobilityNetwork.host[24].ipv4.mp forwardServiceRegistration true
par aodv25AdhocHighMobilityNetwork.host[24].ipv4.mp forwardProtocolRegistration true
par aodv25AdhocHighMobilityNetwork.host[24].ipv4.ip typename "\"inet.networklayer.ipv4.Ipv4\""
par aodv25AdhocHighMobilityNetwork.host[24].ipv4.ip interfaceTableModule "\"aodv25AdhocHighMobilityNetwork.host[24].interfaceTable\""
par aodv25AdhocHighMobilityNetwork.host[24].ipv4.ip routingTableModule "\"aodv25AdhocHighMobilityNetwork.host[24].ipv4.routingTable\""
par aodv25AdhocHighMobilityNetwork.host[24].ipv4.ip arpModule "\"aodv25AdhocHighMobilityNetwork.host[24].ipv4.arp\""
par aodv25AdhocHighMobilityNetwork.host[24].ipv4.ip icmpModule "\"aodv25AdhocHighMobilityNetwork.host[24].ipv4.icmp\""
par aodv25AdhocHighMobilityNetwork.host[24].ipv4.ip crcMode "\"declared\""
attr enum declared,computed
par aodv25AdhocHighMobilityNetwork.host[24].ipv4.ip timeToLive 32
par aodv25AdhocHighMobilityNetwork.host[24].ipv4.ip multicastTimeToLive 32
par aodv25AdhocHighMobilityNetwork.host[24].ipv4.ip fragmentTimeout 60s
attr unit s
par aodv25AdhocHighMobilityNetwork.host[24].ipv4.ip limitedBroadcast false
par aodv25AdhocHighMobilityNetwork.host[24].ipv4.ip directBroadcastInterfaces "\"\""
scalar aodv25AdhocHighMobilityNetwork.host[24].ipv4.ip packetDropAddressResolutionFailed:count 0
attr interpolationmode none
attr recordingmode count
attr source packetDropReasonIsAddressResolutionFailed(packetDropped)
attr title "packet drop: address resolution failed, count"
scalar aodv25AdhocHighMobilityNetwork.host[24].ipv4.ip packetDropAddressResolutionFailed:sum(packetBytes) 0
attr interpolationmode none
attr recordingmode sum(packetBytes)
attr source packetDropReasonIsAddressResolutionFailed(packetDropped)
attr title "packet drop: address resolution failed, sum(packetBytes)"
scalar aodv25AdhocHighMobilityNetwork.host[24].ipv4.ip packetDropHopLimitReached:count 0
attr interpolationmode none
attr recordingmode count
attr source packetDropReasonIsHopLimitReached(packetDropped)
attr title "packet drop: hop limit reached, count"
scalar aodv25AdhocHighMobilityNetwork.host[24].ipv4.ip packetDropHopLimitReached:sum(packetBytes) 0
attr interpolationmode none
attr recordingmode sum(packetBytes)
attr source packetDropReasonIsHopLimitReached(packetDropped)
attr title "packet drop: hop limit reached, sum(packetBytes)"
scalar aodv25AdhocHighMobilityNetwork.host[24].ipv4.ip packetDropForwardingDisabled:count 0
attr interpolationmode none
attr recordingmode count
attr source packetDropReasonIsForwardingDisabled(packetDropped)
attr title "packet drop: forwarding disabled, count"
scalar aodv25AdhocHighMobilityNetwork.host[24].ipv4.ip packetDropForwardingDisabled:sum(packetBytes) 0
attr interpolationmode none
attr recordingmode sum(packetBytes)
attr source packetDropReasonIsForwardingDisabled(packetDropped)
attr title "packet drop: forwarding disabled, sum(packetBytes)"
scalar aodv25AdhocHighMobilityNetwork.host[24].ipv4.ip packetDropNoInterfaceFound:count 0
attr interpolationmode none
attr recordingmode count
attr source packetDropReasonIsNoInterfaceFound(packetDropped)
attr title "packet drop: no interface found, count"
scalar aodv25AdhocHighMobilityNetwork.host[24].ipv4.ip packetDropNoInterfaceFound:sum(packetBytes) 0
attr interpolationmode none
attr recordingmode sum(packetBytes)
attr source packetDropReasonIsNoInterfaceFound(packetDropped)
attr title "packet drop: no interface found, sum(packetBytes)"
scalar aodv25AdhocHighMobilityNetwork.host[24].ipv4.ip packetDropNoRouteFound:count 0
attr interpolationmode none
attr recordingmode count
attr source packetDropReasonIsNoRouteFound(packetDropped)
attr title "packet drop: no route found, count"
scalar aodv25AdhocHighMobilityNetwork.host[24].ipv4.ip packetDropNoRouteFound:sum(packetBytes) 0
attr interpolationmode none
attr recordingmode sum(packetBytes)
attr source packetDropReasonIsNoRouteFound(packetDropped)
attr title "packet drop: no route found, sum(packetBytes)"
scalar aodv25AdhocHighMobilityNetwork.host[24].ipv4.ip packetDropUndefined:count 0
attr interpolationmode none
attr recordingmode count
attr source packetDropReasonIsUndefined(packetDropped)
attr title "packet drop: undefined, count"
scalar aodv25AdhocHighMobilityNetwork.host[24].ipv4.ip packetDropUndefined:sum(packetBytes) 0
attr interpolationmode none
attr recordingmode sum(packetBytes)
attr source packetDropReasonIsUndefined(packetDropped)
attr title "packet drop: undefined, sum(packetBytes)"
par aodv25AdhocHighMobilityNetwork.host[24].ipv4.arp typename "\"inet.networklayer.arp.ipv4.Arp\""
par aodv25AdhocHighMobilityNetwork.host[24].ipv4.arp interfaceTableModule "\"aodv25AdhocHighMobilityNetwork.host[24].interfaceTable\""
par aodv25AdhocHighMobilityNetwork.host[24].ipv4.arp routingTableModule "\"aodv25AdhocHighMobilityNetwork.host[24].ipv4.routingTable\""
par aodv25AdhocHighMobilityNetwork.host[24].ipv4.arp retryTimeout 1s
attr unit s
par aodv25AdhocHighMobilityNetwork.host[24].ipv4.arp retryCount 3
par aodv25AdhocHighMobilityNetwork.host[24].ipv4.arp cacheTimeout 120s
attr unit s
par aodv25AdhocHighMobilityNetwork.host[24].ipv4.arp proxyArpInterfaces "\"\""
scalar aodv25AdhocHighMobilityNetwork.host[24].ipv4.arp arpReplySent:count 0
attr recordingmode count
attr source arpReplySent
attr title "ARP replies sent, count"
scalar aodv25AdhocHighMobilityNetwork.host[24].ipv4.arp arpReplySent:sum(packetBytes) 0
attr recordingmode sum(packetBytes)
attr source arpReplySent
attr title "ARP replies sent, sum(packetBytes)"
scalar aodv25AdhocHighMobilityNetwork.host[24].ipv4.arp arpRequestSent:count 0
attr recordingmode count
attr source arpRequestSent
attr title "ARP request sent, count"
scalar aodv25AdhocHighMobilityNetwork.host[24].ipv4.arp arpRequestSent:sum(packetBytes) 0
attr recordingmode sum(packetBytes)
attr source arpRequestSent
attr title "ARP request sent, sum(packetBytes)"
scalar aodv25AdhocHighMobilityNetwork.host[24].ipv4.arp arpResolutionFailed:count 0
attr recordingmode count
attr title "ARP failed resolutions, count"
scalar aodv25AdhocHighMobilityNetwork.host[24].ipv4.arp arpResolutionCompleted:count 0
attr recordingmode count
attr title "ARP completed resolutions, count"
scalar aodv25AdhocHighMobilityNetwork.host[24].ipv4.arp arpResolutionInitiated:count 0
attr recordingmode count
attr title "ARP initiated resolutions, count"
par aodv25AdhocHighMobilityNetwork.host[24].ipv4.lp typename "\"inet.common.MessageDispatcher\""
par aodv25AdhocHighMobilityNetwork.host[24].ipv4.lp displayStringTextFormat "\"processed %p pk (%l)\""
par aodv25AdhocHighMobilityNetwork.host[24].ipv4.lp forwardServiceRegistration true
par aodv25AdhocHighMobilityNetwork.host[24].ipv4.lp forwardProtocolRegistration true
par aodv25AdhocHighMobilityNetwork.host[24].ipv4 typename "\"inet.networklayer.ipv4.Ipv4NetworkLayer\""
par aodv25AdhocHighMobilityNetwork.host[24].ipv4 forwarding true
par aodv25AdhocHighMobilityNetwork.host[24].ipv4 multicastForwarding false
par aodv25AdhocHighMobilityNetwork.host[24].ipv4 interfaceTableModule "\"aodv25AdhocHighMobilityNetwork.host[24].interfaceTable\""
par aodv25AdhocHighMobilityNetwork.host[24].ipv4 displayStringTextFormat "\"%i\""
par aodv25AdhocHighMobilityNetwork.host[24].nl typename "\"inet.common.MessageDispatcher\""
par aodv25AdhocHighMobilityNetwork.host[24].nl displayStringTextFormat "\"processed %p pk (%l)\""
par aodv25AdhocHighMobilityNetwork.host[24].nl forwardServiceRegistration true
par aodv25AdhocHighMobilityNetwork.host[24].nl forwardProtocolRegistration true
par aodv25AdhocHighMobilityNetwork.host[24].udp typename "\"inet.transportlayer.udp.Udp\""
par aodv25AdhocHighMobilityNetwork.host[24].udp interfaceTableModule "\"aodv25AdhocHighMobilityNetwork.host[24].interfaceTable\""
par aodv25AdhocHighMobilityNetwork.host[24].udp icmpModule "\"^.ipv4.icmp\""
par aodv25AdhocHighMobilityNetwork.host[24].udp icmpv6Module "\"^.ipv6.icmpv6\""
par aodv25AdhocHighMobilityNetwork.host[24].udp crcMode "\"declared\""
attr enum disabled,declared,computed
par aodv25AdhocHighMobilityNetwork.host[24].udp defaultMulticastLoop true
scalar aodv25AdhocHighMobilityNetwork.host[24].udp packetReceived:count 139
attr interpolationmode none
attr recordingmode count
attr source packetReceived
attr title "packets received, count"
scalar aodv25AdhocHighMobilityNetwork.host[24].udp packetReceived:sum(packetBytes) 4448
attr interpolationmode none
attr recordingmode sum(packetBytes)
attr source packetReceived
attr title "packets received, sum(packetBytes)"
scalar aodv25AdhocHighMobilityNetwork.host[24].udp packetSent:count 135
attr interpolationmode none
attr recordingmode count
attr source packetSent
attr title "packets sent, count"
scalar aodv25AdhocHighMobilityNetwork.host[24].udp packetSent:sum(packetBytes) 4320
attr interpolationmode none
attr recordingmode sum(packetBytes)
attr source packetSent
attr title "packets sent, sum(packetBytes)"
scalar aodv25AdhocHighMobilityNetwork.host[24].udp passedUpPk:count 139
attr interpolationmode none
attr recordingmode count
attr source packetSentToUpper
attr title "packets passed up, count"
scalar aodv25AdhocHighMobilityNetwork.host[24].udp droppedPkWrongPort:count 0
attr interpolationmode none
attr recordingmode count
attr source packetDropReasonIsNoPortFound(packetDropped)
attr title "packets dropped (wrong port), count"
scalar aodv25AdhocHighMobilityNetwork.host[24].udp droppedPkBadChecksum:count 0
attr interpolationmode none
attr recordingmode count
attr source packetDropReasonIsIncorrectlyReceived(packetDropped)
attr title "packets dropped (checksum error), count"
par aodv25AdhocHighMobilityNetwork.host[24].tcp typename "\"inet.transportlayer.tcp.Tcp\""
par aodv25AdhocHighMobilityNetwork.host[24].tcp crcMode "\"declared\""
attr enum declared,computed
par aodv25AdhocHighMobilityNetwork.host[24].tcp advertisedWindow 7504
par aodv25AdhocHighMobilityNetwork.host[24].tcp delayedAcksEnabled false
par aodv25AdhocHighMobilityNetwork.host[24].tcp nagleEnabled true
par aodv25AdhocHighMobilityNetwork.host[24].tcp limitedTransmitEnabled false
par aodv25AdhocHighMobilityNetwork.host[24].tcp increasedIWEnabled false
par aodv25AdhocHighMobilityNetwork.host[24].tcp sackSupport false
par aodv25AdhocHighMobilityNetwork.host[24].tcp windowScalingSupport false
par aodv25AdhocHighMobilityNetwork.host[24].tcp windowScalingFactor -1
par aodv25AdhocHighMobilityNetwork.host[24].tcp timestampSupport false
par aodv25AdhocHighMobilityNetwork.host[24].tcp mss 536
par aodv25AdhocHighMobilityNetwork.host[24].tcp msl 120s
attr unit s
par aodv25AdhocHighMobilityNetwork.host[24].tcp tcpAlgorithmClass "\"TcpReno\""
par aodv25AdhocHighMobilityNetwork.host[24].tcp useDataNotification false
par aodv25AdhocHighMobilityNetwork.host[24].tcp dupthresh 3
par aodv25AdhocHighMobilityNetwork.host[24].tcp initialSsthresh 4294967295
par aodv25AdhocHighMobilityNetwork.host[24].tcp stopOperationExtraTime 0s
attr unit s
par aodv25AdhocHighMobilityNetwork.host[24].tcp stopOperationTimeout 2s
attr unit s
par aodv25AdhocHighMobilityNetwork.host[24].tcp ecnWillingness false
par aodv25AdhocHighMobilityNetwork.host[24].tcp dctcpGamma 0.0625
par aodv25AdhocHighMobilityNetwork.host[24].tn typename "\"inet.common.MessageDispatcher\""
par aodv25AdhocHighMobilityNetwork.host[24].tn displayStringTextFormat "\"processed %p pk (%l)\""
par aodv25AdhocHighMobilityNetwork.host[24].tn forwardServiceRegistration true
par aodv25AdhocHighMobilityNetwork.host[24].tn forwardProtocolRegistration true
par aodv25AdhocHighMobilityNetwork.host[24].app[0] typename "\"inet.applications.pingapp.PingApp\""
par aodv25AdhocHighMobilityNetwork.host[24].app[0] destAddr "\"host[0,24](ipv4)\""
par aodv25AdhocHighMobilityNetwork.host[24].app[0] srcAddr "\"\""
par aodv25AdhocHighMobilityNetwork.host[24].app[0] packetSize 56B
attr unit B
par aodv25AdhocHighMobilityNetwork.host[24].app[0] sendInterval "uniform(0.1s, 0.1s)"
attr unit s
par aodv25AdhocHighMobilityNetwork.host[24].app[0] hopLimit -1
par aodv25AdhocHighMobilityNetwork.host[24].app[0] count -1
par aodv25AdhocHighMobilityNetwork.host[24].app[0] startTime 1s
attr unit s
par aodv25AdhocHighMobilityNetwork.host[24].app[0] stopTime -1s
attr unit s
par aodv25AdhocHighMobilityNetwork.host[24].app[0] sleepDuration 0s
attr unit s
par aodv25AdhocHighMobilityNetwork.host[24].app[0] continuous false
par aodv25AdhocHighMobilityNetwork.host[24].app[0] printPing true
par aodv25AdhocHighMobilityNetwork.host[24].app[0] crcMode "\"declared\""
attr enum declared,computed
par aodv25AdhocHighMobilityNetwork.host[24].app[0] networkProtocol "\"\""
par aodv25AdhocHighMobilityNetwork.host[24].app[0] stopOperationExtraTime -1s
attr unit s
par aodv25AdhocHighMobilityNetwork.host[24].app[0] stopOperationTimeout 2s
attr unit s
scalar aodv25AdhocHighMobilityNetwork.host[24].app[0] "Pings sent" 1191
scalar aodv25AdhocHighMobilityNetwork.host[24].app[0] "ping loss rate (%)" 100
scalar aodv25AdhocHighMobilityNetwork.host[24].app[0] "ping out-of-order rate (%)" 0
scalar aodv25AdhocHighMobilityNetwork.host[24].app[0] pingRxSeq:count 0
attr interpolationmode none
attr recordingmode count
attr title "ping rx seq, count"
scalar aodv25AdhocHighMobilityNetwork.host[24].app[0] pingTxSeq:count 1191
attr interpolationmode none
attr recordingmode count
attr title "ping tx seq, count"
scalar aodv25AdhocHighMobilityNetwork.host[24].app[0] numOutOfOrderArrivals:last nan
attr interpolationmode none
attr recordingmode last
attr title "ping out-of-order arrivals, last"
scalar aodv25AdhocHighMobilityNetwork.host[24].app[0] numLost:last nan
attr interpolationmode none
attr recordingmode last
attr title "pings lost, last"
statistic aodv25AdhocHighMobilityNetwork.host[24].app[0] rtt:histogram
field count 0
field mean nan
field stddev nan
field min nan
field max nan
field sum 0
field sqrsum 0
attr interpolationmode none
attr recordingmode histogram
attr title "ping round-trip time"
attr unit s
bin	-inf	0
bin	0	0
bin	1	0
par aodv25AdhocHighMobilityNetwork.host[24].at typename "\"inet.common.MessageDispatcher\""
par aodv25AdhocHighMobilityNetwork.host[24].at displayStringTextFormat "\"processed %p pk (%l)\""
par aodv25AdhocHighMobilityNetwork.host[24].at forwardServiceRegistration true
par aodv25AdhocHighMobilityNetwork.host[24].at forwardProtocolRegistration true
par aodv25AdhocHighMobilityNetwork.host[24].aodv typename "\"inet.routing.aodv.Aodv\""
par aodv25AdhocHighMobilityNetwork.host[24].aodv routingTableModule "\"^.ipv4.routingTable\""
par aodv25AdhocHighMobilityNetwork.host[24].aodv interfaceTableModule "\"aodv25AdhocHighMobilityNetwork.host[24].interfaceTable\""
par aodv25AdhocHighMobilityNetwork.host[24].aodv networkProtocolModule "\"^.ipv4.ip\""
par aodv25AdhocHighMobilityNetwork.host[24].aodv askGratuitousRREP false
par aodv25AdhocHighMobilityNetwork.host[24].aodv useHelloMessages false
par aodv25AdhocHighMobilityNetwork.host[24].aodv useLocalRepair false
par aodv25AdhocHighMobilityNetwork.host[24].aodv destinationOnlyFlag false
par aodv25AdhocHighMobilityNetwork.host[24].aodv udpPort 654
par aodv25AdhocHighMobilityNetwork.host[24].aodv interface "\"wlan0\""
par aodv25AdhocHighMobilityNetwork.host[24].aodv maxPeriodicJitter 0.25s
attr unit s
par aodv25AdhocHighMobilityNetwork.host[24].aodv periodicJitter "uniform(0s, maxPeriodicJitter)"
attr unit s
par aodv25AdhocHighMobilityNetwork.host[24].aodv maxJitter 0.005s
attr unit s
par aodv25AdhocHighMobilityNetwork.host[24].aodv jitter "uniform(0ms, maxJitter)"
attr unit s
par aodv25AdhocHighMobilityNetwork.host[24].aodv helloInterval 1s
attr unit s
par aodv25AdhocHighMobilityNetwork.host[24].aodv allowedHelloLoss 2
par aodv25AdhocHighMobilityNetwork.host[24].aodv activeRouteTimeout 3s
attr unit s
par aodv25AdhocHighMobilityNetwork.host[24].aodv netDiameter 35
par aodv25AdhocHighMobilityNetwork.host[24].aodv nodeTraversalTime 0.04s
attr unit s
par aodv25AdhocHighMobilityNetwork.host[24].aodv rerrRatelimit 10
par aodv25AdhocHighMobilityNetwork.host[24].aodv rreqRetries 2
par aodv25AdhocHighMobilityNetwork.host[24].aodv rreqRatelimit 10
par aodv25AdhocHighMobilityNetwork.host[24].aodv timeoutBuffer 2
par aodv25AdhocHighMobilityNetwork.host[24].aodv ttlStart 2
par aodv25AdhocHighMobilityNetwork.host[24].aodv ttlIncrement 2
par aodv25AdhocHighMobilityNetwork.host[24].aodv ttlThreshold 7
par aodv25AdhocHighMobilityNetwork.host[24].aodv localAddTTL 2
par aodv25AdhocHighMobilityNetwork.host[24].aodv myRouteTimeout 6s
attr unit s
par aodv25AdhocHighMobilityNetwork.host[24].aodv deletePeriod 15s
attr unit s
par aodv25AdhocHighMobilityNetwork.host[24].aodv blacklistTimeout 5.6s
attr unit s
par aodv25AdhocHighMobilityNetwork.host[24].aodv netTraversalTime 2.8s
attr unit s
par aodv25AdhocHighMobilityNetwork.host[24].aodv nextHopWait 0.05s
attr unit s
par aodv25AdhocHighMobilityNetwork.host[24].aodv pathDiscoveryTime 5.6s
attr unit s
par aodv25AdhocHighMobilityNetwork.host[24] typename "\"inet.node.aodv.AodvRouter\""
par aodv25AdhocHighMobilityNetwork.host[24] hasStatus true
par aodv25AdhocHighMobilityNetwork.host[24] osgModel "\"\""
par aodv25AdhocHighMobilityNetwork.host[24] osgModelColor "\"\""
par aodv25AdhocHighMobilityNetwork.host[24] canvasImage "\"\""
par aodv25AdhocHighMobilityNetwork.host[24] canvasImageColor "\"\""
par aodv25AdhocHighMobilityNetwork.host[24] recordPcap false
par aodv25AdhocHighMobilityNetwork.host[24] numPcapRecorders 0
par aodv25AdhocHighMobilityNetwork.host[24] numLoInterfaces 1
par aodv25AdhocHighMobilityNetwork.host[24] numWlanInterfaces 1
par aodv25AdhocHighMobilityNetwork.host[24] numEthInterfaces 0
par aodv25AdhocHighMobilityNetwork.host[24] numPppInterfaces 0
par aodv25AdhocHighMobilityNetwork.host[24] numTunInterfaces 0
par aodv25AdhocHighMobilityNetwork.host[24] numVirtInterfaces 0
par aodv25AdhocHighMobilityNetwork.host[24] fcsMode "\"declared\""
attr enum declared,computed
par aodv25AdhocHighMobilityNetwork.host[24] hasIpv4 true
par aodv25AdhocHighMobilityNetwork.host[24] hasIpv6 false
par aodv25AdhocHighMobilityNetwork.host[24] hasGn false
par aodv25AdhocHighMobilityNetwork.host[24] forwarding true
par aodv25AdhocHighMobilityNetwork.host[24] multicastForwarding false
par aodv25AdhocHighMobilityNetwork.host[24] hasUdp true
par aodv25AdhocHighMobilityNetwork.host[24] hasTcp true
par aodv25AdhocHighMobilityNetwork.host[24] hasSctp false
par aodv25AdhocHighMobilityNetwork.host[24] numApps 1
par aodv25AdhocHighMobilityNetwork typename "\"aodv25.aodv25AdhocHighMobilityNetwork\""

